LTspice 24.0.9 for Windows
Circuit: * C:\Users\seanh\Desktop\schematics\intro electronics lab 8\Filtering\pi stabilizing filter\half wave pi filter pls im tired-2.asc
Start Time: Tue Apr  2 17:31:52 2024
Warning: Multiple definitions of model "d1n4001" Type: Diode
solver = Normal
Maximum thread count: 12



.OP point found by inspection.
.step inductance=0.005 capacitance=1e-06



.step inductance=0.00548239098071593 capacitance=1e-06



.step inductance=0.00601132217308707 capacitance=1e-06



.step inductance=0.00659128369278204 capacitance=1e-06



.step inductance=0.00722719885372964 capacitance=1e-06



.step inductance=0.00792446596230557 capacitance=1e-06



.step inductance=0.00868900414374688 capacitance=1e-06



.step inductance=0.00952730358981624 capacitance=1e-06



.step inductance=0.0104464806542702 capacitance=1e-06



.step inductance=0.0114543382638389 capacitance=1e-06



.step inductance=0.0125594321575479 capacitance=1e-06



.step inductance=0.0137711435166908 capacitance=1e-06



.step inductance=0.0150997586020101 capacitance=1e-06



.step inductance=0.0165565560741296 capacitance=1e-06



.step inductance=0.0181539027385051 capacitance=1e-06



.step inductance=0.0199053585276749 capacitance=1e-06



.step inductance=0.0218257916120083 capacitance=1e-06



.step inductance=0.0239315046161319 capacitance=1e-06



.step inductance=0.0262403730124887 capacitance=1e-06



.step inductance=0.0287719968668579 capacitance=1e-06



.step inductance=0.0315478672240097 capacitance=1e-06



.step inductance=0.0345915485459469 capacitance=1e-06



.step inductance=0.0379288787514592 capacitance=1e-06



.step inductance=0.0415881885551336 capacitance=1e-06



.step inductance=0.0456005419677956 capacitance=1e-06



.step inductance=0.0500000000000001 capacitance=1e-06



.step inductance=0.0548239098071593 capacitance=1e-06



.step inductance=0.0601132217308708 capacitance=1e-06



.step inductance=0.0659128369278205 capacitance=1e-06



.step inductance=0.0722719885372965 capacitance=1e-06



.step inductance=0.0792446596230558 capacitance=1e-06



.step inductance=0.0868900414374689 capacitance=1e-06



.step inductance=0.0952730358981626 capacitance=1e-06



.step inductance=0.104464806542702 capacitance=1e-06



.step inductance=0.114543382638389 capacitance=1e-06



.step inductance=0.125594321575479 capacitance=1e-06



.step inductance=0.137711435166909 capacitance=1e-06



.step inductance=0.150997586020101 capacitance=1e-06



.step inductance=0.165565560741296 capacitance=1e-06



.step inductance=0.181539027385051 capacitance=1e-06



.step inductance=0.199053585276749 capacitance=1e-06



.step inductance=0.218257916120084 capacitance=1e-06



.step inductance=0.23931504616132 capacitance=1e-06



.step inductance=0.262403730124887 capacitance=1e-06



.step inductance=0.287719968668579 capacitance=1e-06



.step inductance=0.315478672240098 capacitance=1e-06



.step inductance=0.345915485459469 capacitance=1e-06



.step inductance=0.379288787514593 capacitance=1e-06



.step inductance=0.415881885551337 capacitance=1e-06



.step inductance=0.456005419677956 capacitance=1e-06



.step inductance=0.500000000000002 capacitance=1e-06



.step inductance=0.548239098071594 capacitance=1e-06



.step inductance=0.601132217308708 capacitance=1e-06



.step inductance=0.659128369278206 capacitance=1e-06



.step inductance=0.722719885372966 capacitance=1e-06



.step inductance=0.79244659623056 capacitance=1e-06



.step inductance=0.868900414374691 capacitance=1e-06



.step inductance=0.952730358981627 capacitance=1e-06



.step inductance=1.04464806542702 capacitance=1e-06



.step inductance=1.14543382638389 capacitance=1e-06



.step inductance=1.2559432157548 capacitance=1e-06



.step inductance=1.37711435166909 capacitance=1e-06



.step inductance=1.50997586020101 capacitance=1e-06



.step inductance=1.65565560741296 capacitance=1e-06



.step inductance=1.81539027385051 capacitance=1e-06



.step inductance=1.9905358527675 capacitance=1e-06



.step inductance=2.18257916120084 capacitance=1e-06



.step inductance=2.3931504616132 capacitance=1e-06



.step inductance=2.62403730124888 capacitance=1e-06



.step inductance=2.8771996866858 capacitance=1e-06



.step inductance=3.15478672240098 capacitance=1e-06



.step inductance=3.4591548545947 capacitance=1e-06



.step inductance=3.79288787514594 capacitance=1e-06



.step inductance=4.15881885551338 capacitance=1e-06



.step inductance=4.56005419677957 capacitance=1e-06



.step inductance=5.00000000000003 capacitance=1e-06



.step inductance=5.48239098071595 capacitance=1e-06



.step inductance=6.0113221730871 capacitance=1e-06



.step inductance=6.59128369278207 capacitance=1e-06



.step inductance=7.22719885372968 capacitance=1e-06



.step inductance=7.92446596230561 capacitance=1e-06



.step inductance=8.68900414374693 capacitance=1e-06



.step inductance=9.52730358981629 capacitance=1e-06



.step inductance=10.4464806542703 capacitance=1e-06



.step inductance=11.4543382638389 capacitance=1e-06



.step inductance=12.559432157548 capacitance=1e-06



.step inductance=13.7711435166909 capacitance=1e-06



.step inductance=15.0997586020102 capacitance=1e-06



.step inductance=16.5565560741297 capacitance=1e-06



.step inductance=18.1539027385052 capacitance=1e-06



.step inductance=19.905358527675 capacitance=1e-06



.step inductance=21.8257916120084 capacitance=1e-06



.step inductance=23.9315046161321 capacitance=1e-06



.step inductance=26.2403730124888 capacitance=1e-06



.step inductance=28.771996866858 capacitance=1e-06



.step inductance=31.5478672240099 capacitance=1e-06



.step inductance=34.5915485459471 capacitance=1e-06



.step inductance=37.9288787514594 capacitance=1e-06



.step inductance=41.5881885551338 capacitance=1e-06



.step inductance=45.6005419677958 capacitance=1e-06



.step inductance=50.0000000000003 capacitance=1e-06



.step inductance=54.8239098071596 capacitance=1e-06



.step inductance=60.1132217308711 capacitance=1e-06



.step inductance=65.9128369278208 capacitance=1e-06



.step inductance=72.2719885372969 capacitance=1e-06



.step inductance=79.2446596230563 capacitance=1e-06



.step inductance=86.8900414374694 capacitance=1e-06



.step inductance=95.2730358981631 capacitance=1e-06



.step inductance=100 capacitance=1e-06



.step inductance=0.005 capacitance=1.09647819614319e-06



.step inductance=0.00548239098071593 capacitance=1.09647819614319e-06



.step inductance=0.00601132217308707 capacitance=1.09647819614319e-06



.step inductance=0.00659128369278204 capacitance=1.09647819614319e-06



.step inductance=0.00722719885372964 capacitance=1.09647819614319e-06



.step inductance=0.00792446596230557 capacitance=1.09647819614319e-06



.step inductance=0.00868900414374688 capacitance=1.09647819614319e-06



.step inductance=0.00952730358981624 capacitance=1.09647819614319e-06



.step inductance=0.0104464806542702 capacitance=1.09647819614319e-06



.step inductance=0.0114543382638389 capacitance=1.09647819614319e-06



.step inductance=0.0125594321575479 capacitance=1.09647819614319e-06



.step inductance=0.0137711435166908 capacitance=1.09647819614319e-06



.step inductance=0.0150997586020101 capacitance=1.09647819614319e-06



.step inductance=0.0165565560741296 capacitance=1.09647819614319e-06



.step inductance=0.0181539027385051 capacitance=1.09647819614319e-06



.step inductance=0.0199053585276749 capacitance=1.09647819614319e-06



.step inductance=0.0218257916120083 capacitance=1.09647819614319e-06



.step inductance=0.0239315046161319 capacitance=1.09647819614319e-06



.step inductance=0.0262403730124887 capacitance=1.09647819614319e-06



.step inductance=0.0287719968668579 capacitance=1.09647819614319e-06



.step inductance=0.0315478672240097 capacitance=1.09647819614319e-06



.step inductance=0.0345915485459469 capacitance=1.09647819614319e-06



.step inductance=0.0379288787514592 capacitance=1.09647819614319e-06



.step inductance=0.0415881885551336 capacitance=1.09647819614319e-06



.step inductance=0.0456005419677956 capacitance=1.09647819614319e-06



.step inductance=0.0500000000000001 capacitance=1.09647819614319e-06



.step inductance=0.0548239098071593 capacitance=1.09647819614319e-06



.step inductance=0.0601132217308708 capacitance=1.09647819614319e-06



.step inductance=0.0659128369278205 capacitance=1.09647819614319e-06



.step inductance=0.0722719885372965 capacitance=1.09647819614319e-06



.step inductance=0.0792446596230558 capacitance=1.09647819614319e-06



.step inductance=0.0868900414374689 capacitance=1.09647819614319e-06



.step inductance=0.0952730358981626 capacitance=1.09647819614319e-06



.step inductance=0.104464806542702 capacitance=1.09647819614319e-06



.step inductance=0.114543382638389 capacitance=1.09647819614319e-06



.step inductance=0.125594321575479 capacitance=1.09647819614319e-06



.step inductance=0.137711435166909 capacitance=1.09647819614319e-06



.step inductance=0.150997586020101 capacitance=1.09647819614319e-06



.step inductance=0.165565560741296 capacitance=1.09647819614319e-06



.step inductance=0.181539027385051 capacitance=1.09647819614319e-06



.step inductance=0.199053585276749 capacitance=1.09647819614319e-06



.step inductance=0.218257916120084 capacitance=1.09647819614319e-06



.step inductance=0.23931504616132 capacitance=1.09647819614319e-06



.step inductance=0.262403730124887 capacitance=1.09647819614319e-06



.step inductance=0.287719968668579 capacitance=1.09647819614319e-06



.step inductance=0.315478672240098 capacitance=1.09647819614319e-06



.step inductance=0.345915485459469 capacitance=1.09647819614319e-06



.step inductance=0.379288787514593 capacitance=1.09647819614319e-06



.step inductance=0.415881885551337 capacitance=1.09647819614319e-06



.step inductance=0.456005419677956 capacitance=1.09647819614319e-06



.step inductance=0.500000000000002 capacitance=1.09647819614319e-06



.step inductance=0.548239098071594 capacitance=1.09647819614319e-06



.step inductance=0.601132217308708 capacitance=1.09647819614319e-06



.step inductance=0.659128369278206 capacitance=1.09647819614319e-06



.step inductance=0.722719885372966 capacitance=1.09647819614319e-06



.step inductance=0.79244659623056 capacitance=1.09647819614319e-06



.step inductance=0.868900414374691 capacitance=1.09647819614319e-06



.step inductance=0.952730358981627 capacitance=1.09647819614319e-06



.step inductance=1.04464806542702 capacitance=1.09647819614319e-06



.step inductance=1.14543382638389 capacitance=1.09647819614319e-06



.step inductance=1.2559432157548 capacitance=1.09647819614319e-06



.step inductance=1.37711435166909 capacitance=1.09647819614319e-06



.step inductance=1.50997586020101 capacitance=1.09647819614319e-06



.step inductance=1.65565560741296 capacitance=1.09647819614319e-06



.step inductance=1.81539027385051 capacitance=1.09647819614319e-06



.step inductance=1.9905358527675 capacitance=1.09647819614319e-06



.step inductance=2.18257916120084 capacitance=1.09647819614319e-06



.step inductance=2.3931504616132 capacitance=1.09647819614319e-06



.step inductance=2.62403730124888 capacitance=1.09647819614319e-06



.step inductance=2.8771996866858 capacitance=1.09647819614319e-06



.step inductance=3.15478672240098 capacitance=1.09647819614319e-06



.step inductance=3.4591548545947 capacitance=1.09647819614319e-06



.step inductance=3.79288787514594 capacitance=1.09647819614319e-06



.step inductance=4.15881885551338 capacitance=1.09647819614319e-06



.step inductance=4.56005419677957 capacitance=1.09647819614319e-06



.step inductance=5.00000000000003 capacitance=1.09647819614319e-06



.step inductance=5.48239098071595 capacitance=1.09647819614319e-06



.step inductance=6.0113221730871 capacitance=1.09647819614319e-06



.step inductance=6.59128369278207 capacitance=1.09647819614319e-06



.step inductance=7.22719885372968 capacitance=1.09647819614319e-06



.step inductance=7.92446596230561 capacitance=1.09647819614319e-06



.step inductance=8.68900414374693 capacitance=1.09647819614319e-06



.step inductance=9.52730358981629 capacitance=1.09647819614319e-06



.step inductance=10.4464806542703 capacitance=1.09647819614319e-06



.step inductance=11.4543382638389 capacitance=1.09647819614319e-06



.step inductance=12.559432157548 capacitance=1.09647819614319e-06



.step inductance=13.7711435166909 capacitance=1.09647819614319e-06



.step inductance=15.0997586020102 capacitance=1.09647819614319e-06



.step inductance=16.5565560741297 capacitance=1.09647819614319e-06



.step inductance=18.1539027385052 capacitance=1.09647819614319e-06



.step inductance=19.905358527675 capacitance=1.09647819614319e-06



.step inductance=21.8257916120084 capacitance=1.09647819614319e-06



.step inductance=23.9315046161321 capacitance=1.09647819614319e-06



.step inductance=26.2403730124888 capacitance=1.09647819614319e-06



.step inductance=28.771996866858 capacitance=1.09647819614319e-06



.step inductance=31.5478672240099 capacitance=1.09647819614319e-06



.step inductance=34.5915485459471 capacitance=1.09647819614319e-06



.step inductance=37.9288787514594 capacitance=1.09647819614319e-06



.step inductance=41.5881885551338 capacitance=1.09647819614319e-06



.step inductance=45.6005419677958 capacitance=1.09647819614319e-06



.step inductance=50.0000000000003 capacitance=1.09647819614319e-06



.step inductance=54.8239098071596 capacitance=1.09647819614319e-06



.step inductance=60.1132217308711 capacitance=1.09647819614319e-06



.step inductance=65.9128369278208 capacitance=1.09647819614319e-06



.step inductance=72.2719885372969 capacitance=1.09647819614319e-06



.step inductance=79.2446596230563 capacitance=1.09647819614319e-06



.step inductance=86.8900414374694 capacitance=1.09647819614319e-06



.step inductance=95.2730358981631 capacitance=1.09647819614319e-06



.step inductance=100 capacitance=1.09647819614319e-06



.step inductance=0.005 capacitance=1.20226443461741e-06



.step inductance=0.00548239098071593 capacitance=1.20226443461741e-06



.step inductance=0.00601132217308707 capacitance=1.20226443461741e-06



.step inductance=0.00659128369278204 capacitance=1.20226443461741e-06



.step inductance=0.00722719885372964 capacitance=1.20226443461741e-06



.step inductance=0.00792446596230557 capacitance=1.20226443461741e-06



.step inductance=0.00868900414374688 capacitance=1.20226443461741e-06



.step inductance=0.00952730358981624 capacitance=1.20226443461741e-06



.step inductance=0.0104464806542702 capacitance=1.20226443461741e-06



.step inductance=0.0114543382638389 capacitance=1.20226443461741e-06



.step inductance=0.0125594321575479 capacitance=1.20226443461741e-06



.step inductance=0.0137711435166908 capacitance=1.20226443461741e-06



.step inductance=0.0150997586020101 capacitance=1.20226443461741e-06



.step inductance=0.0165565560741296 capacitance=1.20226443461741e-06



.step inductance=0.0181539027385051 capacitance=1.20226443461741e-06



.step inductance=0.0199053585276749 capacitance=1.20226443461741e-06



.step inductance=0.0218257916120083 capacitance=1.20226443461741e-06



.step inductance=0.0239315046161319 capacitance=1.20226443461741e-06



.step inductance=0.0262403730124887 capacitance=1.20226443461741e-06



.step inductance=0.0287719968668579 capacitance=1.20226443461741e-06



.step inductance=0.0315478672240097 capacitance=1.20226443461741e-06



.step inductance=0.0345915485459469 capacitance=1.20226443461741e-06



.step inductance=0.0379288787514592 capacitance=1.20226443461741e-06



.step inductance=0.0415881885551336 capacitance=1.20226443461741e-06



.step inductance=0.0456005419677956 capacitance=1.20226443461741e-06



.step inductance=0.0500000000000001 capacitance=1.20226443461741e-06



.step inductance=0.0548239098071593 capacitance=1.20226443461741e-06



.step inductance=0.0601132217308708 capacitance=1.20226443461741e-06



.step inductance=0.0659128369278205 capacitance=1.20226443461741e-06



.step inductance=0.0722719885372965 capacitance=1.20226443461741e-06



.step inductance=0.0792446596230558 capacitance=1.20226443461741e-06



.step inductance=0.0868900414374689 capacitance=1.20226443461741e-06



.step inductance=0.0952730358981626 capacitance=1.20226443461741e-06



.step inductance=0.104464806542702 capacitance=1.20226443461741e-06



.step inductance=0.114543382638389 capacitance=1.20226443461741e-06



.step inductance=0.125594321575479 capacitance=1.20226443461741e-06



.step inductance=0.137711435166909 capacitance=1.20226443461741e-06



.step inductance=0.150997586020101 capacitance=1.20226443461741e-06



.step inductance=0.165565560741296 capacitance=1.20226443461741e-06



.step inductance=0.181539027385051 capacitance=1.20226443461741e-06



.step inductance=0.199053585276749 capacitance=1.20226443461741e-06



.step inductance=0.218257916120084 capacitance=1.20226443461741e-06



.step inductance=0.23931504616132 capacitance=1.20226443461741e-06



.step inductance=0.262403730124887 capacitance=1.20226443461741e-06



.step inductance=0.287719968668579 capacitance=1.20226443461741e-06



.step inductance=0.315478672240098 capacitance=1.20226443461741e-06



.step inductance=0.345915485459469 capacitance=1.20226443461741e-06



.step inductance=0.379288787514593 capacitance=1.20226443461741e-06



.step inductance=0.415881885551337 capacitance=1.20226443461741e-06



.step inductance=0.456005419677956 capacitance=1.20226443461741e-06



.step inductance=0.500000000000002 capacitance=1.20226443461741e-06



.step inductance=0.548239098071594 capacitance=1.20226443461741e-06



.step inductance=0.601132217308708 capacitance=1.20226443461741e-06



.step inductance=0.659128369278206 capacitance=1.20226443461741e-06



.step inductance=0.722719885372966 capacitance=1.20226443461741e-06



.step inductance=0.79244659623056 capacitance=1.20226443461741e-06



.step inductance=0.868900414374691 capacitance=1.20226443461741e-06



.step inductance=0.952730358981627 capacitance=1.20226443461741e-06



.step inductance=1.04464806542702 capacitance=1.20226443461741e-06



.step inductance=1.14543382638389 capacitance=1.20226443461741e-06



.step inductance=1.2559432157548 capacitance=1.20226443461741e-06



.step inductance=1.37711435166909 capacitance=1.20226443461741e-06



.step inductance=1.50997586020101 capacitance=1.20226443461741e-06



.step inductance=1.65565560741296 capacitance=1.20226443461741e-06



.step inductance=1.81539027385051 capacitance=1.20226443461741e-06



.step inductance=1.9905358527675 capacitance=1.20226443461741e-06



.step inductance=2.18257916120084 capacitance=1.20226443461741e-06



.step inductance=2.3931504616132 capacitance=1.20226443461741e-06



.step inductance=2.62403730124888 capacitance=1.20226443461741e-06



.step inductance=2.8771996866858 capacitance=1.20226443461741e-06



.step inductance=3.15478672240098 capacitance=1.20226443461741e-06



.step inductance=3.4591548545947 capacitance=1.20226443461741e-06



.step inductance=3.79288787514594 capacitance=1.20226443461741e-06



.step inductance=4.15881885551338 capacitance=1.20226443461741e-06



.step inductance=4.56005419677957 capacitance=1.20226443461741e-06



.step inductance=5.00000000000003 capacitance=1.20226443461741e-06



.step inductance=5.48239098071595 capacitance=1.20226443461741e-06



.step inductance=6.0113221730871 capacitance=1.20226443461741e-06



.step inductance=6.59128369278207 capacitance=1.20226443461741e-06



.step inductance=7.22719885372968 capacitance=1.20226443461741e-06



.step inductance=7.92446596230561 capacitance=1.20226443461741e-06



.step inductance=8.68900414374693 capacitance=1.20226443461741e-06



.step inductance=9.52730358981629 capacitance=1.20226443461741e-06



.step inductance=10.4464806542703 capacitance=1.20226443461741e-06



.step inductance=11.4543382638389 capacitance=1.20226443461741e-06



.step inductance=12.559432157548 capacitance=1.20226443461741e-06



.step inductance=13.7711435166909 capacitance=1.20226443461741e-06



.step inductance=15.0997586020102 capacitance=1.20226443461741e-06



.step inductance=16.5565560741297 capacitance=1.20226443461741e-06



.step inductance=18.1539027385052 capacitance=1.20226443461741e-06



.step inductance=19.905358527675 capacitance=1.20226443461741e-06



.step inductance=21.8257916120084 capacitance=1.20226443461741e-06



.step inductance=23.9315046161321 capacitance=1.20226443461741e-06



.step inductance=26.2403730124888 capacitance=1.20226443461741e-06



.step inductance=28.771996866858 capacitance=1.20226443461741e-06



.step inductance=31.5478672240099 capacitance=1.20226443461741e-06



.step inductance=34.5915485459471 capacitance=1.20226443461741e-06



.step inductance=37.9288787514594 capacitance=1.20226443461741e-06



.step inductance=41.5881885551338 capacitance=1.20226443461741e-06



.step inductance=45.6005419677958 capacitance=1.20226443461741e-06



.step inductance=50.0000000000003 capacitance=1.20226443461741e-06



.step inductance=54.8239098071596 capacitance=1.20226443461741e-06



.step inductance=60.1132217308711 capacitance=1.20226443461741e-06



.step inductance=65.9128369278208 capacitance=1.20226443461741e-06



.step inductance=72.2719885372969 capacitance=1.20226443461741e-06



.step inductance=79.2446596230563 capacitance=1.20226443461741e-06



.step inductance=86.8900414374694 capacitance=1.20226443461741e-06



.step inductance=95.2730358981631 capacitance=1.20226443461741e-06



.step inductance=100 capacitance=1.20226443461741e-06



.step inductance=0.005 capacitance=1.31825673855641e-06



.step inductance=0.00548239098071593 capacitance=1.31825673855641e-06



.step inductance=0.00601132217308707 capacitance=1.31825673855641e-06



.step inductance=0.00659128369278204 capacitance=1.31825673855641e-06



.step inductance=0.00722719885372964 capacitance=1.31825673855641e-06



.step inductance=0.00792446596230557 capacitance=1.31825673855641e-06



.step inductance=0.00868900414374688 capacitance=1.31825673855641e-06



.step inductance=0.00952730358981624 capacitance=1.31825673855641e-06



.step inductance=0.0104464806542702 capacitance=1.31825673855641e-06



.step inductance=0.0114543382638389 capacitance=1.31825673855641e-06



.step inductance=0.0125594321575479 capacitance=1.31825673855641e-06



.step inductance=0.0137711435166908 capacitance=1.31825673855641e-06



.step inductance=0.0150997586020101 capacitance=1.31825673855641e-06



.step inductance=0.0165565560741296 capacitance=1.31825673855641e-06



.step inductance=0.0181539027385051 capacitance=1.31825673855641e-06



.step inductance=0.0199053585276749 capacitance=1.31825673855641e-06



.step inductance=0.0218257916120083 capacitance=1.31825673855641e-06



.step inductance=0.0239315046161319 capacitance=1.31825673855641e-06



.step inductance=0.0262403730124887 capacitance=1.31825673855641e-06



.step inductance=0.0287719968668579 capacitance=1.31825673855641e-06



.step inductance=0.0315478672240097 capacitance=1.31825673855641e-06



.step inductance=0.0345915485459469 capacitance=1.31825673855641e-06



.step inductance=0.0379288787514592 capacitance=1.31825673855641e-06



.step inductance=0.0415881885551336 capacitance=1.31825673855641e-06



.step inductance=0.0456005419677956 capacitance=1.31825673855641e-06



.step inductance=0.0500000000000001 capacitance=1.31825673855641e-06



.step inductance=0.0548239098071593 capacitance=1.31825673855641e-06



.step inductance=0.0601132217308708 capacitance=1.31825673855641e-06



.step inductance=0.0659128369278205 capacitance=1.31825673855641e-06



.step inductance=0.0722719885372965 capacitance=1.31825673855641e-06



.step inductance=0.0792446596230558 capacitance=1.31825673855641e-06



.step inductance=0.0868900414374689 capacitance=1.31825673855641e-06



.step inductance=0.0952730358981626 capacitance=1.31825673855641e-06



.step inductance=0.104464806542702 capacitance=1.31825673855641e-06



.step inductance=0.114543382638389 capacitance=1.31825673855641e-06



.step inductance=0.125594321575479 capacitance=1.31825673855641e-06



.step inductance=0.137711435166909 capacitance=1.31825673855641e-06



.step inductance=0.150997586020101 capacitance=1.31825673855641e-06



.step inductance=0.165565560741296 capacitance=1.31825673855641e-06



.step inductance=0.181539027385051 capacitance=1.31825673855641e-06



.step inductance=0.199053585276749 capacitance=1.31825673855641e-06



.step inductance=0.218257916120084 capacitance=1.31825673855641e-06



.step inductance=0.23931504616132 capacitance=1.31825673855641e-06



.step inductance=0.262403730124887 capacitance=1.31825673855641e-06



.step inductance=0.287719968668579 capacitance=1.31825673855641e-06



.step inductance=0.315478672240098 capacitance=1.31825673855641e-06



.step inductance=0.345915485459469 capacitance=1.31825673855641e-06



.step inductance=0.379288787514593 capacitance=1.31825673855641e-06



.step inductance=0.415881885551337 capacitance=1.31825673855641e-06



.step inductance=0.456005419677956 capacitance=1.31825673855641e-06



.step inductance=0.500000000000002 capacitance=1.31825673855641e-06



.step inductance=0.548239098071594 capacitance=1.31825673855641e-06



.step inductance=0.601132217308708 capacitance=1.31825673855641e-06



.step inductance=0.659128369278206 capacitance=1.31825673855641e-06



.step inductance=0.722719885372966 capacitance=1.31825673855641e-06



.step inductance=0.79244659623056 capacitance=1.31825673855641e-06



.step inductance=0.868900414374691 capacitance=1.31825673855641e-06



.step inductance=0.952730358981627 capacitance=1.31825673855641e-06



.step inductance=1.04464806542702 capacitance=1.31825673855641e-06



.step inductance=1.14543382638389 capacitance=1.31825673855641e-06



.step inductance=1.2559432157548 capacitance=1.31825673855641e-06



.step inductance=1.37711435166909 capacitance=1.31825673855641e-06



.step inductance=1.50997586020101 capacitance=1.31825673855641e-06



.step inductance=1.65565560741296 capacitance=1.31825673855641e-06



.step inductance=1.81539027385051 capacitance=1.31825673855641e-06



.step inductance=1.9905358527675 capacitance=1.31825673855641e-06



.step inductance=2.18257916120084 capacitance=1.31825673855641e-06



.step inductance=2.3931504616132 capacitance=1.31825673855641e-06



.step inductance=2.62403730124888 capacitance=1.31825673855641e-06



.step inductance=2.8771996866858 capacitance=1.31825673855641e-06



.step inductance=3.15478672240098 capacitance=1.31825673855641e-06



.step inductance=3.4591548545947 capacitance=1.31825673855641e-06



.step inductance=3.79288787514594 capacitance=1.31825673855641e-06



.step inductance=4.15881885551338 capacitance=1.31825673855641e-06



.step inductance=4.56005419677957 capacitance=1.31825673855641e-06



.step inductance=5.00000000000003 capacitance=1.31825673855641e-06



.step inductance=5.48239098071595 capacitance=1.31825673855641e-06



.step inductance=6.0113221730871 capacitance=1.31825673855641e-06



.step inductance=6.59128369278207 capacitance=1.31825673855641e-06



.step inductance=7.22719885372968 capacitance=1.31825673855641e-06



.step inductance=7.92446596230561 capacitance=1.31825673855641e-06



.step inductance=8.68900414374693 capacitance=1.31825673855641e-06



.step inductance=9.52730358981629 capacitance=1.31825673855641e-06



.step inductance=10.4464806542703 capacitance=1.31825673855641e-06



.step inductance=11.4543382638389 capacitance=1.31825673855641e-06



.step inductance=12.559432157548 capacitance=1.31825673855641e-06



.step inductance=13.7711435166909 capacitance=1.31825673855641e-06



.step inductance=15.0997586020102 capacitance=1.31825673855641e-06



.step inductance=16.5565560741297 capacitance=1.31825673855641e-06



.step inductance=18.1539027385052 capacitance=1.31825673855641e-06



.step inductance=19.905358527675 capacitance=1.31825673855641e-06



.step inductance=21.8257916120084 capacitance=1.31825673855641e-06



.step inductance=23.9315046161321 capacitance=1.31825673855641e-06



.step inductance=26.2403730124888 capacitance=1.31825673855641e-06



.step inductance=28.771996866858 capacitance=1.31825673855641e-06



.step inductance=31.5478672240099 capacitance=1.31825673855641e-06



.step inductance=34.5915485459471 capacitance=1.31825673855641e-06



.step inductance=37.9288787514594 capacitance=1.31825673855641e-06



.step inductance=41.5881885551338 capacitance=1.31825673855641e-06



.step inductance=45.6005419677958 capacitance=1.31825673855641e-06



.step inductance=50.0000000000003 capacitance=1.31825673855641e-06



.step inductance=54.8239098071596 capacitance=1.31825673855641e-06



.step inductance=60.1132217308711 capacitance=1.31825673855641e-06



.step inductance=65.9128369278208 capacitance=1.31825673855641e-06



.step inductance=72.2719885372969 capacitance=1.31825673855641e-06



.step inductance=79.2446596230563 capacitance=1.31825673855641e-06



.step inductance=86.8900414374694 capacitance=1.31825673855641e-06



.step inductance=95.2730358981631 capacitance=1.31825673855641e-06



.step inductance=100 capacitance=1.31825673855641e-06



.step inductance=0.005 capacitance=1.44543977074593e-06



.step inductance=0.00548239098071593 capacitance=1.44543977074593e-06



.step inductance=0.00601132217308707 capacitance=1.44543977074593e-06



.step inductance=0.00659128369278204 capacitance=1.44543977074593e-06



.step inductance=0.00722719885372964 capacitance=1.44543977074593e-06



.step inductance=0.00792446596230557 capacitance=1.44543977074593e-06



.step inductance=0.00868900414374688 capacitance=1.44543977074593e-06



.step inductance=0.00952730358981624 capacitance=1.44543977074593e-06



.step inductance=0.0104464806542702 capacitance=1.44543977074593e-06



.step inductance=0.0114543382638389 capacitance=1.44543977074593e-06



.step inductance=0.0125594321575479 capacitance=1.44543977074593e-06



.step inductance=0.0137711435166908 capacitance=1.44543977074593e-06



.step inductance=0.0150997586020101 capacitance=1.44543977074593e-06



.step inductance=0.0165565560741296 capacitance=1.44543977074593e-06



.step inductance=0.0181539027385051 capacitance=1.44543977074593e-06



.step inductance=0.0199053585276749 capacitance=1.44543977074593e-06



.step inductance=0.0218257916120083 capacitance=1.44543977074593e-06



.step inductance=0.0239315046161319 capacitance=1.44543977074593e-06



.step inductance=0.0262403730124887 capacitance=1.44543977074593e-06



.step inductance=0.0287719968668579 capacitance=1.44543977074593e-06



.step inductance=0.0315478672240097 capacitance=1.44543977074593e-06



.step inductance=0.0345915485459469 capacitance=1.44543977074593e-06



.step inductance=0.0379288787514592 capacitance=1.44543977074593e-06



.step inductance=0.0415881885551336 capacitance=1.44543977074593e-06



.step inductance=0.0456005419677956 capacitance=1.44543977074593e-06



.step inductance=0.0500000000000001 capacitance=1.44543977074593e-06



.step inductance=0.0548239098071593 capacitance=1.44543977074593e-06



.step inductance=0.0601132217308708 capacitance=1.44543977074593e-06



.step inductance=0.0659128369278205 capacitance=1.44543977074593e-06



.step inductance=0.0722719885372965 capacitance=1.44543977074593e-06



.step inductance=0.0792446596230558 capacitance=1.44543977074593e-06



.step inductance=0.0868900414374689 capacitance=1.44543977074593e-06



.step inductance=0.0952730358981626 capacitance=1.44543977074593e-06



.step inductance=0.104464806542702 capacitance=1.44543977074593e-06



.step inductance=0.114543382638389 capacitance=1.44543977074593e-06



.step inductance=0.125594321575479 capacitance=1.44543977074593e-06



.step inductance=0.137711435166909 capacitance=1.44543977074593e-06



.step inductance=0.150997586020101 capacitance=1.44543977074593e-06



.step inductance=0.165565560741296 capacitance=1.44543977074593e-06



.step inductance=0.181539027385051 capacitance=1.44543977074593e-06



.step inductance=0.199053585276749 capacitance=1.44543977074593e-06



.step inductance=0.218257916120084 capacitance=1.44543977074593e-06



.step inductance=0.23931504616132 capacitance=1.44543977074593e-06



.step inductance=0.262403730124887 capacitance=1.44543977074593e-06



.step inductance=0.287719968668579 capacitance=1.44543977074593e-06



.step inductance=0.315478672240098 capacitance=1.44543977074593e-06



.step inductance=0.345915485459469 capacitance=1.44543977074593e-06



.step inductance=0.379288787514593 capacitance=1.44543977074593e-06



.step inductance=0.415881885551337 capacitance=1.44543977074593e-06



.step inductance=0.456005419677956 capacitance=1.44543977074593e-06



.step inductance=0.500000000000002 capacitance=1.44543977074593e-06



.step inductance=0.548239098071594 capacitance=1.44543977074593e-06



.step inductance=0.601132217308708 capacitance=1.44543977074593e-06



.step inductance=0.659128369278206 capacitance=1.44543977074593e-06



.step inductance=0.722719885372966 capacitance=1.44543977074593e-06



.step inductance=0.79244659623056 capacitance=1.44543977074593e-06



.step inductance=0.868900414374691 capacitance=1.44543977074593e-06



.step inductance=0.952730358981627 capacitance=1.44543977074593e-06



.step inductance=1.04464806542702 capacitance=1.44543977074593e-06



.step inductance=1.14543382638389 capacitance=1.44543977074593e-06



.step inductance=1.2559432157548 capacitance=1.44543977074593e-06



.step inductance=1.37711435166909 capacitance=1.44543977074593e-06



.step inductance=1.50997586020101 capacitance=1.44543977074593e-06



.step inductance=1.65565560741296 capacitance=1.44543977074593e-06



.step inductance=1.81539027385051 capacitance=1.44543977074593e-06



.step inductance=1.9905358527675 capacitance=1.44543977074593e-06



.step inductance=2.18257916120084 capacitance=1.44543977074593e-06



.step inductance=2.3931504616132 capacitance=1.44543977074593e-06



.step inductance=2.62403730124888 capacitance=1.44543977074593e-06



.step inductance=2.8771996866858 capacitance=1.44543977074593e-06



.step inductance=3.15478672240098 capacitance=1.44543977074593e-06



.step inductance=3.4591548545947 capacitance=1.44543977074593e-06



.step inductance=3.79288787514594 capacitance=1.44543977074593e-06



.step inductance=4.15881885551338 capacitance=1.44543977074593e-06



.step inductance=4.56005419677957 capacitance=1.44543977074593e-06



.step inductance=5.00000000000003 capacitance=1.44543977074593e-06



.step inductance=5.48239098071595 capacitance=1.44543977074593e-06



.step inductance=6.0113221730871 capacitance=1.44543977074593e-06



.step inductance=6.59128369278207 capacitance=1.44543977074593e-06



.step inductance=7.22719885372968 capacitance=1.44543977074593e-06



.step inductance=7.92446596230561 capacitance=1.44543977074593e-06



.step inductance=8.68900414374693 capacitance=1.44543977074593e-06



.step inductance=9.52730358981629 capacitance=1.44543977074593e-06



.step inductance=10.4464806542703 capacitance=1.44543977074593e-06



.step inductance=11.4543382638389 capacitance=1.44543977074593e-06



.step inductance=12.559432157548 capacitance=1.44543977074593e-06



.step inductance=13.7711435166909 capacitance=1.44543977074593e-06



.step inductance=15.0997586020102 capacitance=1.44543977074593e-06



.step inductance=16.5565560741297 capacitance=1.44543977074593e-06



.step inductance=18.1539027385052 capacitance=1.44543977074593e-06



.step inductance=19.905358527675 capacitance=1.44543977074593e-06



.step inductance=21.8257916120084 capacitance=1.44543977074593e-06



.step inductance=23.9315046161321 capacitance=1.44543977074593e-06



.step inductance=26.2403730124888 capacitance=1.44543977074593e-06



.step inductance=28.771996866858 capacitance=1.44543977074593e-06



.step inductance=31.5478672240099 capacitance=1.44543977074593e-06



.step inductance=34.5915485459471 capacitance=1.44543977074593e-06



.step inductance=37.9288787514594 capacitance=1.44543977074593e-06



.step inductance=41.5881885551338 capacitance=1.44543977074593e-06



.step inductance=45.6005419677958 capacitance=1.44543977074593e-06



.step inductance=50.0000000000003 capacitance=1.44543977074593e-06



.step inductance=54.8239098071596 capacitance=1.44543977074593e-06



.step inductance=60.1132217308711 capacitance=1.44543977074593e-06



.step inductance=65.9128369278208 capacitance=1.44543977074593e-06



.step inductance=72.2719885372969 capacitance=1.44543977074593e-06



.step inductance=79.2446596230563 capacitance=1.44543977074593e-06



.step inductance=86.8900414374694 capacitance=1.44543977074593e-06



.step inductance=95.2730358981631 capacitance=1.44543977074593e-06



.step inductance=100 capacitance=1.44543977074593e-06



.step inductance=0.005 capacitance=1.58489319246111e-06



.step inductance=0.00548239098071593 capacitance=1.58489319246111e-06



.step inductance=0.00601132217308707 capacitance=1.58489319246111e-06



.step inductance=0.00659128369278204 capacitance=1.58489319246111e-06



.step inductance=0.00722719885372964 capacitance=1.58489319246111e-06



.step inductance=0.00792446596230557 capacitance=1.58489319246111e-06



.step inductance=0.00868900414374688 capacitance=1.58489319246111e-06



.step inductance=0.00952730358981624 capacitance=1.58489319246111e-06



.step inductance=0.0104464806542702 capacitance=1.58489319246111e-06



.step inductance=0.0114543382638389 capacitance=1.58489319246111e-06



.step inductance=0.0125594321575479 capacitance=1.58489319246111e-06



.step inductance=0.0137711435166908 capacitance=1.58489319246111e-06



.step inductance=0.0150997586020101 capacitance=1.58489319246111e-06



.step inductance=0.0165565560741296 capacitance=1.58489319246111e-06



.step inductance=0.0181539027385051 capacitance=1.58489319246111e-06



.step inductance=0.0199053585276749 capacitance=1.58489319246111e-06



.step inductance=0.0218257916120083 capacitance=1.58489319246111e-06



.step inductance=0.0239315046161319 capacitance=1.58489319246111e-06



.step inductance=0.0262403730124887 capacitance=1.58489319246111e-06



.step inductance=0.0287719968668579 capacitance=1.58489319246111e-06



.step inductance=0.0315478672240097 capacitance=1.58489319246111e-06



.step inductance=0.0345915485459469 capacitance=1.58489319246111e-06



.step inductance=0.0379288787514592 capacitance=1.58489319246111e-06



.step inductance=0.0415881885551336 capacitance=1.58489319246111e-06



.step inductance=0.0456005419677956 capacitance=1.58489319246111e-06



.step inductance=0.0500000000000001 capacitance=1.58489319246111e-06



.step inductance=0.0548239098071593 capacitance=1.58489319246111e-06



.step inductance=0.0601132217308708 capacitance=1.58489319246111e-06



.step inductance=0.0659128369278205 capacitance=1.58489319246111e-06



.step inductance=0.0722719885372965 capacitance=1.58489319246111e-06



.step inductance=0.0792446596230558 capacitance=1.58489319246111e-06



.step inductance=0.0868900414374689 capacitance=1.58489319246111e-06



.step inductance=0.0952730358981626 capacitance=1.58489319246111e-06



.step inductance=0.104464806542702 capacitance=1.58489319246111e-06



.step inductance=0.114543382638389 capacitance=1.58489319246111e-06



.step inductance=0.125594321575479 capacitance=1.58489319246111e-06



.step inductance=0.137711435166909 capacitance=1.58489319246111e-06



.step inductance=0.150997586020101 capacitance=1.58489319246111e-06



.step inductance=0.165565560741296 capacitance=1.58489319246111e-06



.step inductance=0.181539027385051 capacitance=1.58489319246111e-06



.step inductance=0.199053585276749 capacitance=1.58489319246111e-06



.step inductance=0.218257916120084 capacitance=1.58489319246111e-06



.step inductance=0.23931504616132 capacitance=1.58489319246111e-06



.step inductance=0.262403730124887 capacitance=1.58489319246111e-06



.step inductance=0.287719968668579 capacitance=1.58489319246111e-06



.step inductance=0.315478672240098 capacitance=1.58489319246111e-06



.step inductance=0.345915485459469 capacitance=1.58489319246111e-06



.step inductance=0.379288787514593 capacitance=1.58489319246111e-06



.step inductance=0.415881885551337 capacitance=1.58489319246111e-06



.step inductance=0.456005419677956 capacitance=1.58489319246111e-06



.step inductance=0.500000000000002 capacitance=1.58489319246111e-06



.step inductance=0.548239098071594 capacitance=1.58489319246111e-06



.step inductance=0.601132217308708 capacitance=1.58489319246111e-06



.step inductance=0.659128369278206 capacitance=1.58489319246111e-06



.step inductance=0.722719885372966 capacitance=1.58489319246111e-06



.step inductance=0.79244659623056 capacitance=1.58489319246111e-06



.step inductance=0.868900414374691 capacitance=1.58489319246111e-06



.step inductance=0.952730358981627 capacitance=1.58489319246111e-06



.step inductance=1.04464806542702 capacitance=1.58489319246111e-06



.step inductance=1.14543382638389 capacitance=1.58489319246111e-06



.step inductance=1.2559432157548 capacitance=1.58489319246111e-06



.step inductance=1.37711435166909 capacitance=1.58489319246111e-06



.step inductance=1.50997586020101 capacitance=1.58489319246111e-06



.step inductance=1.65565560741296 capacitance=1.58489319246111e-06



.step inductance=1.81539027385051 capacitance=1.58489319246111e-06



.step inductance=1.9905358527675 capacitance=1.58489319246111e-06



.step inductance=2.18257916120084 capacitance=1.58489319246111e-06



.step inductance=2.3931504616132 capacitance=1.58489319246111e-06



.step inductance=2.62403730124888 capacitance=1.58489319246111e-06



.step inductance=2.8771996866858 capacitance=1.58489319246111e-06



.step inductance=3.15478672240098 capacitance=1.58489319246111e-06



.step inductance=3.4591548545947 capacitance=1.58489319246111e-06



.step inductance=3.79288787514594 capacitance=1.58489319246111e-06



.step inductance=4.15881885551338 capacitance=1.58489319246111e-06



.step inductance=4.56005419677957 capacitance=1.58489319246111e-06



.step inductance=5.00000000000003 capacitance=1.58489319246111e-06



.step inductance=5.48239098071595 capacitance=1.58489319246111e-06



.step inductance=6.0113221730871 capacitance=1.58489319246111e-06



.step inductance=6.59128369278207 capacitance=1.58489319246111e-06



.step inductance=7.22719885372968 capacitance=1.58489319246111e-06



.step inductance=7.92446596230561 capacitance=1.58489319246111e-06



.step inductance=8.68900414374693 capacitance=1.58489319246111e-06



.step inductance=9.52730358981629 capacitance=1.58489319246111e-06



.step inductance=10.4464806542703 capacitance=1.58489319246111e-06



.step inductance=11.4543382638389 capacitance=1.58489319246111e-06



.step inductance=12.559432157548 capacitance=1.58489319246111e-06



.step inductance=13.7711435166909 capacitance=1.58489319246111e-06



.step inductance=15.0997586020102 capacitance=1.58489319246111e-06



.step inductance=16.5565560741297 capacitance=1.58489319246111e-06



.step inductance=18.1539027385052 capacitance=1.58489319246111e-06



.step inductance=19.905358527675 capacitance=1.58489319246111e-06



.step inductance=21.8257916120084 capacitance=1.58489319246111e-06



.step inductance=23.9315046161321 capacitance=1.58489319246111e-06



.step inductance=26.2403730124888 capacitance=1.58489319246111e-06



.step inductance=28.771996866858 capacitance=1.58489319246111e-06



.step inductance=31.5478672240099 capacitance=1.58489319246111e-06



.step inductance=34.5915485459471 capacitance=1.58489319246111e-06



.step inductance=37.9288787514594 capacitance=1.58489319246111e-06



.step inductance=41.5881885551338 capacitance=1.58489319246111e-06



.step inductance=45.6005419677958 capacitance=1.58489319246111e-06



.step inductance=50.0000000000003 capacitance=1.58489319246111e-06



.step inductance=54.8239098071596 capacitance=1.58489319246111e-06



.step inductance=60.1132217308711 capacitance=1.58489319246111e-06



.step inductance=65.9128369278208 capacitance=1.58489319246111e-06



.step inductance=72.2719885372969 capacitance=1.58489319246111e-06



.step inductance=79.2446596230563 capacitance=1.58489319246111e-06



.step inductance=86.8900414374694 capacitance=1.58489319246111e-06



.step inductance=95.2730358981631 capacitance=1.58489319246111e-06



.step inductance=100 capacitance=1.58489319246111e-06



.step inductance=0.005 capacitance=1.73780082874938e-06



.step inductance=0.00548239098071593 capacitance=1.73780082874938e-06



.step inductance=0.00601132217308707 capacitance=1.73780082874938e-06



.step inductance=0.00659128369278204 capacitance=1.73780082874938e-06



.step inductance=0.00722719885372964 capacitance=1.73780082874938e-06



.step inductance=0.00792446596230557 capacitance=1.73780082874938e-06



.step inductance=0.00868900414374688 capacitance=1.73780082874938e-06



.step inductance=0.00952730358981624 capacitance=1.73780082874938e-06



.step inductance=0.0104464806542702 capacitance=1.73780082874938e-06



.step inductance=0.0114543382638389 capacitance=1.73780082874938e-06



.step inductance=0.0125594321575479 capacitance=1.73780082874938e-06



.step inductance=0.0137711435166908 capacitance=1.73780082874938e-06



.step inductance=0.0150997586020101 capacitance=1.73780082874938e-06



.step inductance=0.0165565560741296 capacitance=1.73780082874938e-06



.step inductance=0.0181539027385051 capacitance=1.73780082874938e-06



.step inductance=0.0199053585276749 capacitance=1.73780082874938e-06



.step inductance=0.0218257916120083 capacitance=1.73780082874938e-06



.step inductance=0.0239315046161319 capacitance=1.73780082874938e-06



.step inductance=0.0262403730124887 capacitance=1.73780082874938e-06



.step inductance=0.0287719968668579 capacitance=1.73780082874938e-06



.step inductance=0.0315478672240097 capacitance=1.73780082874938e-06



.step inductance=0.0345915485459469 capacitance=1.73780082874938e-06



.step inductance=0.0379288787514592 capacitance=1.73780082874938e-06



.step inductance=0.0415881885551336 capacitance=1.73780082874938e-06



.step inductance=0.0456005419677956 capacitance=1.73780082874938e-06



.step inductance=0.0500000000000001 capacitance=1.73780082874938e-06



.step inductance=0.0548239098071593 capacitance=1.73780082874938e-06



.step inductance=0.0601132217308708 capacitance=1.73780082874938e-06



.step inductance=0.0659128369278205 capacitance=1.73780082874938e-06



.step inductance=0.0722719885372965 capacitance=1.73780082874938e-06



.step inductance=0.0792446596230558 capacitance=1.73780082874938e-06



.step inductance=0.0868900414374689 capacitance=1.73780082874938e-06



.step inductance=0.0952730358981626 capacitance=1.73780082874938e-06



.step inductance=0.104464806542702 capacitance=1.73780082874938e-06



.step inductance=0.114543382638389 capacitance=1.73780082874938e-06



.step inductance=0.125594321575479 capacitance=1.73780082874938e-06



.step inductance=0.137711435166909 capacitance=1.73780082874938e-06



.step inductance=0.150997586020101 capacitance=1.73780082874938e-06



.step inductance=0.165565560741296 capacitance=1.73780082874938e-06



.step inductance=0.181539027385051 capacitance=1.73780082874938e-06



.step inductance=0.199053585276749 capacitance=1.73780082874938e-06



.step inductance=0.218257916120084 capacitance=1.73780082874938e-06



.step inductance=0.23931504616132 capacitance=1.73780082874938e-06



.step inductance=0.262403730124887 capacitance=1.73780082874938e-06



.step inductance=0.287719968668579 capacitance=1.73780082874938e-06



.step inductance=0.315478672240098 capacitance=1.73780082874938e-06



.step inductance=0.345915485459469 capacitance=1.73780082874938e-06



.step inductance=0.379288787514593 capacitance=1.73780082874938e-06



.step inductance=0.415881885551337 capacitance=1.73780082874938e-06



.step inductance=0.456005419677956 capacitance=1.73780082874938e-06



.step inductance=0.500000000000002 capacitance=1.73780082874938e-06



.step inductance=0.548239098071594 capacitance=1.73780082874938e-06



.step inductance=0.601132217308708 capacitance=1.73780082874938e-06



.step inductance=0.659128369278206 capacitance=1.73780082874938e-06



.step inductance=0.722719885372966 capacitance=1.73780082874938e-06



.step inductance=0.79244659623056 capacitance=1.73780082874938e-06



.step inductance=0.868900414374691 capacitance=1.73780082874938e-06



.step inductance=0.952730358981627 capacitance=1.73780082874938e-06



.step inductance=1.04464806542702 capacitance=1.73780082874938e-06



.step inductance=1.14543382638389 capacitance=1.73780082874938e-06



.step inductance=1.2559432157548 capacitance=1.73780082874938e-06



.step inductance=1.37711435166909 capacitance=1.73780082874938e-06



.step inductance=1.50997586020101 capacitance=1.73780082874938e-06



.step inductance=1.65565560741296 capacitance=1.73780082874938e-06



.step inductance=1.81539027385051 capacitance=1.73780082874938e-06



.step inductance=1.9905358527675 capacitance=1.73780082874938e-06



.step inductance=2.18257916120084 capacitance=1.73780082874938e-06



.step inductance=2.3931504616132 capacitance=1.73780082874938e-06



.step inductance=2.62403730124888 capacitance=1.73780082874938e-06



.step inductance=2.8771996866858 capacitance=1.73780082874938e-06



.step inductance=3.15478672240098 capacitance=1.73780082874938e-06



.step inductance=3.4591548545947 capacitance=1.73780082874938e-06



.step inductance=3.79288787514594 capacitance=1.73780082874938e-06



.step inductance=4.15881885551338 capacitance=1.73780082874938e-06



.step inductance=4.56005419677957 capacitance=1.73780082874938e-06



.step inductance=5.00000000000003 capacitance=1.73780082874938e-06



.step inductance=5.48239098071595 capacitance=1.73780082874938e-06



.step inductance=6.0113221730871 capacitance=1.73780082874938e-06



.step inductance=6.59128369278207 capacitance=1.73780082874938e-06



.step inductance=7.22719885372968 capacitance=1.73780082874938e-06



.step inductance=7.92446596230561 capacitance=1.73780082874938e-06



.step inductance=8.68900414374693 capacitance=1.73780082874938e-06



.step inductance=9.52730358981629 capacitance=1.73780082874938e-06



.step inductance=10.4464806542703 capacitance=1.73780082874938e-06



.step inductance=11.4543382638389 capacitance=1.73780082874938e-06



.step inductance=12.559432157548 capacitance=1.73780082874938e-06



.step inductance=13.7711435166909 capacitance=1.73780082874938e-06



.step inductance=15.0997586020102 capacitance=1.73780082874938e-06



.step inductance=16.5565560741297 capacitance=1.73780082874938e-06



.step inductance=18.1539027385052 capacitance=1.73780082874938e-06



.step inductance=19.905358527675 capacitance=1.73780082874938e-06



.step inductance=21.8257916120084 capacitance=1.73780082874938e-06



.step inductance=23.9315046161321 capacitance=1.73780082874938e-06



.step inductance=26.2403730124888 capacitance=1.73780082874938e-06



.step inductance=28.771996866858 capacitance=1.73780082874938e-06



.step inductance=31.5478672240099 capacitance=1.73780082874938e-06



.step inductance=34.5915485459471 capacitance=1.73780082874938e-06



.step inductance=37.9288787514594 capacitance=1.73780082874938e-06



.step inductance=41.5881885551338 capacitance=1.73780082874938e-06



.step inductance=45.6005419677958 capacitance=1.73780082874938e-06



.step inductance=50.0000000000003 capacitance=1.73780082874938e-06



.step inductance=54.8239098071596 capacitance=1.73780082874938e-06



.step inductance=60.1132217308711 capacitance=1.73780082874938e-06



.step inductance=65.9128369278208 capacitance=1.73780082874938e-06



.step inductance=72.2719885372969 capacitance=1.73780082874938e-06



.step inductance=79.2446596230563 capacitance=1.73780082874938e-06



.step inductance=86.8900414374694 capacitance=1.73780082874938e-06



.step inductance=95.2730358981631 capacitance=1.73780082874938e-06



.step inductance=100 capacitance=1.73780082874938e-06



.step inductance=0.005 capacitance=1.90546071796325e-06



.step inductance=0.00548239098071593 capacitance=1.90546071796325e-06



.step inductance=0.00601132217308707 capacitance=1.90546071796325e-06



.step inductance=0.00659128369278204 capacitance=1.90546071796325e-06



.step inductance=0.00722719885372964 capacitance=1.90546071796325e-06



.step inductance=0.00792446596230557 capacitance=1.90546071796325e-06



.step inductance=0.00868900414374688 capacitance=1.90546071796325e-06



.step inductance=0.00952730358981624 capacitance=1.90546071796325e-06



.step inductance=0.0104464806542702 capacitance=1.90546071796325e-06



.step inductance=0.0114543382638389 capacitance=1.90546071796325e-06



.step inductance=0.0125594321575479 capacitance=1.90546071796325e-06



.step inductance=0.0137711435166908 capacitance=1.90546071796325e-06



.step inductance=0.0150997586020101 capacitance=1.90546071796325e-06



.step inductance=0.0165565560741296 capacitance=1.90546071796325e-06



.step inductance=0.0181539027385051 capacitance=1.90546071796325e-06



.step inductance=0.0199053585276749 capacitance=1.90546071796325e-06



.step inductance=0.0218257916120083 capacitance=1.90546071796325e-06



.step inductance=0.0239315046161319 capacitance=1.90546071796325e-06



.step inductance=0.0262403730124887 capacitance=1.90546071796325e-06



.step inductance=0.0287719968668579 capacitance=1.90546071796325e-06



.step inductance=0.0315478672240097 capacitance=1.90546071796325e-06



.step inductance=0.0345915485459469 capacitance=1.90546071796325e-06



.step inductance=0.0379288787514592 capacitance=1.90546071796325e-06



.step inductance=0.0415881885551336 capacitance=1.90546071796325e-06



.step inductance=0.0456005419677956 capacitance=1.90546071796325e-06



.step inductance=0.0500000000000001 capacitance=1.90546071796325e-06



.step inductance=0.0548239098071593 capacitance=1.90546071796325e-06



.step inductance=0.0601132217308708 capacitance=1.90546071796325e-06



.step inductance=0.0659128369278205 capacitance=1.90546071796325e-06



.step inductance=0.0722719885372965 capacitance=1.90546071796325e-06



.step inductance=0.0792446596230558 capacitance=1.90546071796325e-06



.step inductance=0.0868900414374689 capacitance=1.90546071796325e-06



.step inductance=0.0952730358981626 capacitance=1.90546071796325e-06



.step inductance=0.104464806542702 capacitance=1.90546071796325e-06



.step inductance=0.114543382638389 capacitance=1.90546071796325e-06



.step inductance=0.125594321575479 capacitance=1.90546071796325e-06



.step inductance=0.137711435166909 capacitance=1.90546071796325e-06



.step inductance=0.150997586020101 capacitance=1.90546071796325e-06



.step inductance=0.165565560741296 capacitance=1.90546071796325e-06



.step inductance=0.181539027385051 capacitance=1.90546071796325e-06



.step inductance=0.199053585276749 capacitance=1.90546071796325e-06



.step inductance=0.218257916120084 capacitance=1.90546071796325e-06



.step inductance=0.23931504616132 capacitance=1.90546071796325e-06



.step inductance=0.262403730124887 capacitance=1.90546071796325e-06



.step inductance=0.287719968668579 capacitance=1.90546071796325e-06



.step inductance=0.315478672240098 capacitance=1.90546071796325e-06



.step inductance=0.345915485459469 capacitance=1.90546071796325e-06



.step inductance=0.379288787514593 capacitance=1.90546071796325e-06



.step inductance=0.415881885551337 capacitance=1.90546071796325e-06



.step inductance=0.456005419677956 capacitance=1.90546071796325e-06



.step inductance=0.500000000000002 capacitance=1.90546071796325e-06



.step inductance=0.548239098071594 capacitance=1.90546071796325e-06



.step inductance=0.601132217308708 capacitance=1.90546071796325e-06



.step inductance=0.659128369278206 capacitance=1.90546071796325e-06



.step inductance=0.722719885372966 capacitance=1.90546071796325e-06



.step inductance=0.79244659623056 capacitance=1.90546071796325e-06



.step inductance=0.868900414374691 capacitance=1.90546071796325e-06



.step inductance=0.952730358981627 capacitance=1.90546071796325e-06



.step inductance=1.04464806542702 capacitance=1.90546071796325e-06



.step inductance=1.14543382638389 capacitance=1.90546071796325e-06



.step inductance=1.2559432157548 capacitance=1.90546071796325e-06



.step inductance=1.37711435166909 capacitance=1.90546071796325e-06



.step inductance=1.50997586020101 capacitance=1.90546071796325e-06



.step inductance=1.65565560741296 capacitance=1.90546071796325e-06



.step inductance=1.81539027385051 capacitance=1.90546071796325e-06



.step inductance=1.9905358527675 capacitance=1.90546071796325e-06



.step inductance=2.18257916120084 capacitance=1.90546071796325e-06



.step inductance=2.3931504616132 capacitance=1.90546071796325e-06



.step inductance=2.62403730124888 capacitance=1.90546071796325e-06



.step inductance=2.8771996866858 capacitance=1.90546071796325e-06



.step inductance=3.15478672240098 capacitance=1.90546071796325e-06



.step inductance=3.4591548545947 capacitance=1.90546071796325e-06



.step inductance=3.79288787514594 capacitance=1.90546071796325e-06



.step inductance=4.15881885551338 capacitance=1.90546071796325e-06



.step inductance=4.56005419677957 capacitance=1.90546071796325e-06



.step inductance=5.00000000000003 capacitance=1.90546071796325e-06



.step inductance=5.48239098071595 capacitance=1.90546071796325e-06



.step inductance=6.0113221730871 capacitance=1.90546071796325e-06



.step inductance=6.59128369278207 capacitance=1.90546071796325e-06



.step inductance=7.22719885372968 capacitance=1.90546071796325e-06



.step inductance=7.92446596230561 capacitance=1.90546071796325e-06



.step inductance=8.68900414374693 capacitance=1.90546071796325e-06



.step inductance=9.52730358981629 capacitance=1.90546071796325e-06



.step inductance=10.4464806542703 capacitance=1.90546071796325e-06



.step inductance=11.4543382638389 capacitance=1.90546071796325e-06



.step inductance=12.559432157548 capacitance=1.90546071796325e-06



.step inductance=13.7711435166909 capacitance=1.90546071796325e-06



.step inductance=15.0997586020102 capacitance=1.90546071796325e-06



.step inductance=16.5565560741297 capacitance=1.90546071796325e-06



.step inductance=18.1539027385052 capacitance=1.90546071796325e-06



.step inductance=19.905358527675 capacitance=1.90546071796325e-06



.step inductance=21.8257916120084 capacitance=1.90546071796325e-06



.step inductance=23.9315046161321 capacitance=1.90546071796325e-06



.step inductance=26.2403730124888 capacitance=1.90546071796325e-06



.step inductance=28.771996866858 capacitance=1.90546071796325e-06



.step inductance=31.5478672240099 capacitance=1.90546071796325e-06



.step inductance=34.5915485459471 capacitance=1.90546071796325e-06



.step inductance=37.9288787514594 capacitance=1.90546071796325e-06



.step inductance=41.5881885551338 capacitance=1.90546071796325e-06



.step inductance=45.6005419677958 capacitance=1.90546071796325e-06



.step inductance=50.0000000000003 capacitance=1.90546071796325e-06



.step inductance=54.8239098071596 capacitance=1.90546071796325e-06



.step inductance=60.1132217308711 capacitance=1.90546071796325e-06



.step inductance=65.9128369278208 capacitance=1.90546071796325e-06



.step inductance=72.2719885372969 capacitance=1.90546071796325e-06



.step inductance=79.2446596230563 capacitance=1.90546071796325e-06



.step inductance=86.8900414374694 capacitance=1.90546071796325e-06



.step inductance=95.2730358981631 capacitance=1.90546071796325e-06



.step inductance=100 capacitance=1.90546071796325e-06



.step inductance=0.005 capacitance=2.08929613085404e-06



.step inductance=0.00548239098071593 capacitance=2.08929613085404e-06



.step inductance=0.00601132217308707 capacitance=2.08929613085404e-06



.step inductance=0.00659128369278204 capacitance=2.08929613085404e-06



.step inductance=0.00722719885372964 capacitance=2.08929613085404e-06



.step inductance=0.00792446596230557 capacitance=2.08929613085404e-06



.step inductance=0.00868900414374688 capacitance=2.08929613085404e-06



.step inductance=0.00952730358981624 capacitance=2.08929613085404e-06



.step inductance=0.0104464806542702 capacitance=2.08929613085404e-06



.step inductance=0.0114543382638389 capacitance=2.08929613085404e-06



.step inductance=0.0125594321575479 capacitance=2.08929613085404e-06



.step inductance=0.0137711435166908 capacitance=2.08929613085404e-06



.step inductance=0.0150997586020101 capacitance=2.08929613085404e-06



.step inductance=0.0165565560741296 capacitance=2.08929613085404e-06



.step inductance=0.0181539027385051 capacitance=2.08929613085404e-06



.step inductance=0.0199053585276749 capacitance=2.08929613085404e-06



.step inductance=0.0218257916120083 capacitance=2.08929613085404e-06



.step inductance=0.0239315046161319 capacitance=2.08929613085404e-06



.step inductance=0.0262403730124887 capacitance=2.08929613085404e-06



.step inductance=0.0287719968668579 capacitance=2.08929613085404e-06



.step inductance=0.0315478672240097 capacitance=2.08929613085404e-06



.step inductance=0.0345915485459469 capacitance=2.08929613085404e-06



.step inductance=0.0379288787514592 capacitance=2.08929613085404e-06



.step inductance=0.0415881885551336 capacitance=2.08929613085404e-06



.step inductance=0.0456005419677956 capacitance=2.08929613085404e-06



.step inductance=0.0500000000000001 capacitance=2.08929613085404e-06



.step inductance=0.0548239098071593 capacitance=2.08929613085404e-06



.step inductance=0.0601132217308708 capacitance=2.08929613085404e-06



.step inductance=0.0659128369278205 capacitance=2.08929613085404e-06



.step inductance=0.0722719885372965 capacitance=2.08929613085404e-06



.step inductance=0.0792446596230558 capacitance=2.08929613085404e-06



.step inductance=0.0868900414374689 capacitance=2.08929613085404e-06



.step inductance=0.0952730358981626 capacitance=2.08929613085404e-06



.step inductance=0.104464806542702 capacitance=2.08929613085404e-06



.step inductance=0.114543382638389 capacitance=2.08929613085404e-06



.step inductance=0.125594321575479 capacitance=2.08929613085404e-06



.step inductance=0.137711435166909 capacitance=2.08929613085404e-06



.step inductance=0.150997586020101 capacitance=2.08929613085404e-06



.step inductance=0.165565560741296 capacitance=2.08929613085404e-06



.step inductance=0.181539027385051 capacitance=2.08929613085404e-06



.step inductance=0.199053585276749 capacitance=2.08929613085404e-06



.step inductance=0.218257916120084 capacitance=2.08929613085404e-06



.step inductance=0.23931504616132 capacitance=2.08929613085404e-06



.step inductance=0.262403730124887 capacitance=2.08929613085404e-06



.step inductance=0.287719968668579 capacitance=2.08929613085404e-06



.step inductance=0.315478672240098 capacitance=2.08929613085404e-06



.step inductance=0.345915485459469 capacitance=2.08929613085404e-06



.step inductance=0.379288787514593 capacitance=2.08929613085404e-06



.step inductance=0.415881885551337 capacitance=2.08929613085404e-06



.step inductance=0.456005419677956 capacitance=2.08929613085404e-06



.step inductance=0.500000000000002 capacitance=2.08929613085404e-06



.step inductance=0.548239098071594 capacitance=2.08929613085404e-06



.step inductance=0.601132217308708 capacitance=2.08929613085404e-06



.step inductance=0.659128369278206 capacitance=2.08929613085404e-06



.step inductance=0.722719885372966 capacitance=2.08929613085404e-06



.step inductance=0.79244659623056 capacitance=2.08929613085404e-06



.step inductance=0.868900414374691 capacitance=2.08929613085404e-06



.step inductance=0.952730358981627 capacitance=2.08929613085404e-06



.step inductance=1.04464806542702 capacitance=2.08929613085404e-06



.step inductance=1.14543382638389 capacitance=2.08929613085404e-06



.step inductance=1.2559432157548 capacitance=2.08929613085404e-06



.step inductance=1.37711435166909 capacitance=2.08929613085404e-06



.step inductance=1.50997586020101 capacitance=2.08929613085404e-06



.step inductance=1.65565560741296 capacitance=2.08929613085404e-06



.step inductance=1.81539027385051 capacitance=2.08929613085404e-06



.step inductance=1.9905358527675 capacitance=2.08929613085404e-06



.step inductance=2.18257916120084 capacitance=2.08929613085404e-06



.step inductance=2.3931504616132 capacitance=2.08929613085404e-06



.step inductance=2.62403730124888 capacitance=2.08929613085404e-06



.step inductance=2.8771996866858 capacitance=2.08929613085404e-06



.step inductance=3.15478672240098 capacitance=2.08929613085404e-06



.step inductance=3.4591548545947 capacitance=2.08929613085404e-06



.step inductance=3.79288787514594 capacitance=2.08929613085404e-06



.step inductance=4.15881885551338 capacitance=2.08929613085404e-06



.step inductance=4.56005419677957 capacitance=2.08929613085404e-06



.step inductance=5.00000000000003 capacitance=2.08929613085404e-06



.step inductance=5.48239098071595 capacitance=2.08929613085404e-06



.step inductance=6.0113221730871 capacitance=2.08929613085404e-06



.step inductance=6.59128369278207 capacitance=2.08929613085404e-06



.step inductance=7.22719885372968 capacitance=2.08929613085404e-06



.step inductance=7.92446596230561 capacitance=2.08929613085404e-06



.step inductance=8.68900414374693 capacitance=2.08929613085404e-06



.step inductance=9.52730358981629 capacitance=2.08929613085404e-06



.step inductance=10.4464806542703 capacitance=2.08929613085404e-06



.step inductance=11.4543382638389 capacitance=2.08929613085404e-06



.step inductance=12.559432157548 capacitance=2.08929613085404e-06



.step inductance=13.7711435166909 capacitance=2.08929613085404e-06



.step inductance=15.0997586020102 capacitance=2.08929613085404e-06



.step inductance=16.5565560741297 capacitance=2.08929613085404e-06



.step inductance=18.1539027385052 capacitance=2.08929613085404e-06



.step inductance=19.905358527675 capacitance=2.08929613085404e-06



.step inductance=21.8257916120084 capacitance=2.08929613085404e-06



.step inductance=23.9315046161321 capacitance=2.08929613085404e-06



.step inductance=26.2403730124888 capacitance=2.08929613085404e-06



.step inductance=28.771996866858 capacitance=2.08929613085404e-06



.step inductance=31.5478672240099 capacitance=2.08929613085404e-06



.step inductance=34.5915485459471 capacitance=2.08929613085404e-06



.step inductance=37.9288787514594 capacitance=2.08929613085404e-06



.step inductance=41.5881885551338 capacitance=2.08929613085404e-06



.step inductance=45.6005419677958 capacitance=2.08929613085404e-06



.step inductance=50.0000000000003 capacitance=2.08929613085404e-06



.step inductance=54.8239098071596 capacitance=2.08929613085404e-06



.step inductance=60.1132217308711 capacitance=2.08929613085404e-06



.step inductance=65.9128369278208 capacitance=2.08929613085404e-06



.step inductance=72.2719885372969 capacitance=2.08929613085404e-06



.step inductance=79.2446596230563 capacitance=2.08929613085404e-06



.step inductance=86.8900414374694 capacitance=2.08929613085404e-06



.step inductance=95.2730358981631 capacitance=2.08929613085404e-06



.step inductance=100 capacitance=2.08929613085404e-06



.step inductance=0.005 capacitance=2.29086765276778e-06



.step inductance=0.00548239098071593 capacitance=2.29086765276778e-06



.step inductance=0.00601132217308707 capacitance=2.29086765276778e-06



.step inductance=0.00659128369278204 capacitance=2.29086765276778e-06



.step inductance=0.00722719885372964 capacitance=2.29086765276778e-06



.step inductance=0.00792446596230557 capacitance=2.29086765276778e-06



.step inductance=0.00868900414374688 capacitance=2.29086765276778e-06



.step inductance=0.00952730358981624 capacitance=2.29086765276778e-06



.step inductance=0.0104464806542702 capacitance=2.29086765276778e-06



.step inductance=0.0114543382638389 capacitance=2.29086765276778e-06



.step inductance=0.0125594321575479 capacitance=2.29086765276778e-06



.step inductance=0.0137711435166908 capacitance=2.29086765276778e-06



.step inductance=0.0150997586020101 capacitance=2.29086765276778e-06



.step inductance=0.0165565560741296 capacitance=2.29086765276778e-06



.step inductance=0.0181539027385051 capacitance=2.29086765276778e-06



.step inductance=0.0199053585276749 capacitance=2.29086765276778e-06



.step inductance=0.0218257916120083 capacitance=2.29086765276778e-06



.step inductance=0.0239315046161319 capacitance=2.29086765276778e-06



.step inductance=0.0262403730124887 capacitance=2.29086765276778e-06



.step inductance=0.0287719968668579 capacitance=2.29086765276778e-06



.step inductance=0.0315478672240097 capacitance=2.29086765276778e-06



.step inductance=0.0345915485459469 capacitance=2.29086765276778e-06



.step inductance=0.0379288787514592 capacitance=2.29086765276778e-06



.step inductance=0.0415881885551336 capacitance=2.29086765276778e-06



.step inductance=0.0456005419677956 capacitance=2.29086765276778e-06



.step inductance=0.0500000000000001 capacitance=2.29086765276778e-06



.step inductance=0.0548239098071593 capacitance=2.29086765276778e-06



.step inductance=0.0601132217308708 capacitance=2.29086765276778e-06



.step inductance=0.0659128369278205 capacitance=2.29086765276778e-06



.step inductance=0.0722719885372965 capacitance=2.29086765276778e-06



.step inductance=0.0792446596230558 capacitance=2.29086765276778e-06



.step inductance=0.0868900414374689 capacitance=2.29086765276778e-06



.step inductance=0.0952730358981626 capacitance=2.29086765276778e-06



.step inductance=0.104464806542702 capacitance=2.29086765276778e-06



.step inductance=0.114543382638389 capacitance=2.29086765276778e-06



.step inductance=0.125594321575479 capacitance=2.29086765276778e-06



.step inductance=0.137711435166909 capacitance=2.29086765276778e-06



.step inductance=0.150997586020101 capacitance=2.29086765276778e-06



.step inductance=0.165565560741296 capacitance=2.29086765276778e-06



.step inductance=0.181539027385051 capacitance=2.29086765276778e-06



.step inductance=0.199053585276749 capacitance=2.29086765276778e-06



.step inductance=0.218257916120084 capacitance=2.29086765276778e-06



.step inductance=0.23931504616132 capacitance=2.29086765276778e-06



.step inductance=0.262403730124887 capacitance=2.29086765276778e-06



.step inductance=0.287719968668579 capacitance=2.29086765276778e-06



.step inductance=0.315478672240098 capacitance=2.29086765276778e-06



.step inductance=0.345915485459469 capacitance=2.29086765276778e-06



.step inductance=0.379288787514593 capacitance=2.29086765276778e-06



.step inductance=0.415881885551337 capacitance=2.29086765276778e-06



.step inductance=0.456005419677956 capacitance=2.29086765276778e-06



.step inductance=0.500000000000002 capacitance=2.29086765276778e-06



.step inductance=0.548239098071594 capacitance=2.29086765276778e-06



.step inductance=0.601132217308708 capacitance=2.29086765276778e-06



.step inductance=0.659128369278206 capacitance=2.29086765276778e-06



.step inductance=0.722719885372966 capacitance=2.29086765276778e-06



.step inductance=0.79244659623056 capacitance=2.29086765276778e-06



.step inductance=0.868900414374691 capacitance=2.29086765276778e-06



.step inductance=0.952730358981627 capacitance=2.29086765276778e-06



.step inductance=1.04464806542702 capacitance=2.29086765276778e-06



.step inductance=1.14543382638389 capacitance=2.29086765276778e-06



.step inductance=1.2559432157548 capacitance=2.29086765276778e-06



.step inductance=1.37711435166909 capacitance=2.29086765276778e-06



.step inductance=1.50997586020101 capacitance=2.29086765276778e-06



.step inductance=1.65565560741296 capacitance=2.29086765276778e-06



.step inductance=1.81539027385051 capacitance=2.29086765276778e-06



.step inductance=1.9905358527675 capacitance=2.29086765276778e-06



.step inductance=2.18257916120084 capacitance=2.29086765276778e-06



.step inductance=2.3931504616132 capacitance=2.29086765276778e-06



.step inductance=2.62403730124888 capacitance=2.29086765276778e-06



.step inductance=2.8771996866858 capacitance=2.29086765276778e-06



.step inductance=3.15478672240098 capacitance=2.29086765276778e-06



.step inductance=3.4591548545947 capacitance=2.29086765276778e-06



.step inductance=3.79288787514594 capacitance=2.29086765276778e-06



.step inductance=4.15881885551338 capacitance=2.29086765276778e-06



.step inductance=4.56005419677957 capacitance=2.29086765276778e-06



.step inductance=5.00000000000003 capacitance=2.29086765276778e-06



.step inductance=5.48239098071595 capacitance=2.29086765276778e-06



.step inductance=6.0113221730871 capacitance=2.29086765276778e-06



.step inductance=6.59128369278207 capacitance=2.29086765276778e-06



.step inductance=7.22719885372968 capacitance=2.29086765276778e-06



.step inductance=7.92446596230561 capacitance=2.29086765276778e-06



.step inductance=8.68900414374693 capacitance=2.29086765276778e-06



.step inductance=9.52730358981629 capacitance=2.29086765276778e-06



.step inductance=10.4464806542703 capacitance=2.29086765276778e-06



.step inductance=11.4543382638389 capacitance=2.29086765276778e-06



.step inductance=12.559432157548 capacitance=2.29086765276778e-06



.step inductance=13.7711435166909 capacitance=2.29086765276778e-06



.step inductance=15.0997586020102 capacitance=2.29086765276778e-06



.step inductance=16.5565560741297 capacitance=2.29086765276778e-06



.step inductance=18.1539027385052 capacitance=2.29086765276778e-06



.step inductance=19.905358527675 capacitance=2.29086765276778e-06



.step inductance=21.8257916120084 capacitance=2.29086765276778e-06



.step inductance=23.9315046161321 capacitance=2.29086765276778e-06



.step inductance=26.2403730124888 capacitance=2.29086765276778e-06



.step inductance=28.771996866858 capacitance=2.29086765276778e-06



.step inductance=31.5478672240099 capacitance=2.29086765276778e-06



.step inductance=34.5915485459471 capacitance=2.29086765276778e-06



.step inductance=37.9288787514594 capacitance=2.29086765276778e-06



.step inductance=41.5881885551338 capacitance=2.29086765276778e-06



.step inductance=45.6005419677958 capacitance=2.29086765276778e-06



.step inductance=50.0000000000003 capacitance=2.29086765276778e-06



.step inductance=54.8239098071596 capacitance=2.29086765276778e-06



.step inductance=60.1132217308711 capacitance=2.29086765276778e-06



.step inductance=65.9128369278208 capacitance=2.29086765276778e-06



.step inductance=72.2719885372969 capacitance=2.29086765276778e-06



.step inductance=79.2446596230563 capacitance=2.29086765276778e-06



.step inductance=86.8900414374694 capacitance=2.29086765276778e-06



.step inductance=95.2730358981631 capacitance=2.29086765276778e-06



.step inductance=100 capacitance=2.29086765276778e-06



.step inductance=0.005 capacitance=2.51188643150958e-06



.step inductance=0.00548239098071593 capacitance=2.51188643150958e-06



.step inductance=0.00601132217308707 capacitance=2.51188643150958e-06



.step inductance=0.00659128369278204 capacitance=2.51188643150958e-06



.step inductance=0.00722719885372964 capacitance=2.51188643150958e-06



.step inductance=0.00792446596230557 capacitance=2.51188643150958e-06



.step inductance=0.00868900414374688 capacitance=2.51188643150958e-06



.step inductance=0.00952730358981624 capacitance=2.51188643150958e-06



.step inductance=0.0104464806542702 capacitance=2.51188643150958e-06



.step inductance=0.0114543382638389 capacitance=2.51188643150958e-06



.step inductance=0.0125594321575479 capacitance=2.51188643150958e-06



.step inductance=0.0137711435166908 capacitance=2.51188643150958e-06



.step inductance=0.0150997586020101 capacitance=2.51188643150958e-06



.step inductance=0.0165565560741296 capacitance=2.51188643150958e-06



.step inductance=0.0181539027385051 capacitance=2.51188643150958e-06



.step inductance=0.0199053585276749 capacitance=2.51188643150958e-06



.step inductance=0.0218257916120083 capacitance=2.51188643150958e-06



.step inductance=0.0239315046161319 capacitance=2.51188643150958e-06



.step inductance=0.0262403730124887 capacitance=2.51188643150958e-06



.step inductance=0.0287719968668579 capacitance=2.51188643150958e-06



.step inductance=0.0315478672240097 capacitance=2.51188643150958e-06



.step inductance=0.0345915485459469 capacitance=2.51188643150958e-06



.step inductance=0.0379288787514592 capacitance=2.51188643150958e-06



.step inductance=0.0415881885551336 capacitance=2.51188643150958e-06



.step inductance=0.0456005419677956 capacitance=2.51188643150958e-06



.step inductance=0.0500000000000001 capacitance=2.51188643150958e-06



.step inductance=0.0548239098071593 capacitance=2.51188643150958e-06



.step inductance=0.0601132217308708 capacitance=2.51188643150958e-06



.step inductance=0.0659128369278205 capacitance=2.51188643150958e-06



.step inductance=0.0722719885372965 capacitance=2.51188643150958e-06



.step inductance=0.0792446596230558 capacitance=2.51188643150958e-06



.step inductance=0.0868900414374689 capacitance=2.51188643150958e-06



.step inductance=0.0952730358981626 capacitance=2.51188643150958e-06



.step inductance=0.104464806542702 capacitance=2.51188643150958e-06



.step inductance=0.114543382638389 capacitance=2.51188643150958e-06



.step inductance=0.125594321575479 capacitance=2.51188643150958e-06



.step inductance=0.137711435166909 capacitance=2.51188643150958e-06



.step inductance=0.150997586020101 capacitance=2.51188643150958e-06



.step inductance=0.165565560741296 capacitance=2.51188643150958e-06



.step inductance=0.181539027385051 capacitance=2.51188643150958e-06



.step inductance=0.199053585276749 capacitance=2.51188643150958e-06



.step inductance=0.218257916120084 capacitance=2.51188643150958e-06



.step inductance=0.23931504616132 capacitance=2.51188643150958e-06



.step inductance=0.262403730124887 capacitance=2.51188643150958e-06



.step inductance=0.287719968668579 capacitance=2.51188643150958e-06



.step inductance=0.315478672240098 capacitance=2.51188643150958e-06



.step inductance=0.345915485459469 capacitance=2.51188643150958e-06



.step inductance=0.379288787514593 capacitance=2.51188643150958e-06



.step inductance=0.415881885551337 capacitance=2.51188643150958e-06



.step inductance=0.456005419677956 capacitance=2.51188643150958e-06



.step inductance=0.500000000000002 capacitance=2.51188643150958e-06



.step inductance=0.548239098071594 capacitance=2.51188643150958e-06



.step inductance=0.601132217308708 capacitance=2.51188643150958e-06



.step inductance=0.659128369278206 capacitance=2.51188643150958e-06



.step inductance=0.722719885372966 capacitance=2.51188643150958e-06



.step inductance=0.79244659623056 capacitance=2.51188643150958e-06



.step inductance=0.868900414374691 capacitance=2.51188643150958e-06



.step inductance=0.952730358981627 capacitance=2.51188643150958e-06



.step inductance=1.04464806542702 capacitance=2.51188643150958e-06



.step inductance=1.14543382638389 capacitance=2.51188643150958e-06



.step inductance=1.2559432157548 capacitance=2.51188643150958e-06



[...]
  5040	0.00398505	0.0083332	0.0249997
  5041	0.00477715	0.00833248	0.0249989
  5042	0.00490347	0.00833168	0.0250014
  5043	0.00494425	0.00833305	0.0250016
  5044	0.00495943	0.00833443	0.0249978
  5045	0.00497707	0.00833342	0.0249995
  5046	0.00498343	0.00833232	0.024999
  5047	0.00498875	0.00833413	0.0249984
  5048	0.00500997	0.00833317	0.0250016
  5049	0.00499345	0.0083338	0.0250001
  5050	0.00500289	0.0083349	0.0250002
  5051	0.00499402	0.00833217	0.0249987
  5052	0.00497879	0.00833519	0.025
  5053	0.00491664	0.00833232	0.0250021
  5054	0.00457219	0.0083331	0.0249994
  5055	0.00211988	0.00833255	0.0250031
  5056	0.00423407	0.0083339	0.025002
  5057	0.00472072	0.00833183	0.0250013
  5058	0.00485154	0.0083307	0.0249975
  5059	0.0048955	0.0083342	0.0249996
  5060	0.00490801	0.00833435	0.0250007
  5061	0.00492557	0.00833257	0.0249976
  5062	0.00493559	0.00833171	0.0250039
  5063	0.00494562	0.00833264	0.0250016
  5064	0.00494906	0.00833716	0.0249982
  5065	0.00495516	0.00833199	0.0250009
  5066	0.00495688	0.00833299	0.0250009
  5067	0.00495985	0.00833335	0.0249991
  5068	0.00496163	0.00833375	0.0249984
  5069	0.00496326	0.00833378	0.0249981
  5070	0.00496405	0.00833466	0.024998
  5071	0.00496772	0.0083344	0.0249996
  5072	0.00496669	0.00833322	0.0250023
  5073	0.00496816	0.00833334	0.0249985
  5074	0.00497674	0.00833731	0.0249983
  5075	0.0049709	0.00833341	0.024999
  5076	0.00497054	0.00833343	0.0250009
  5077	0.00497057	0.00833346	0.0250008
  5078	0.00497276	0.00833346	0.0249986
  5079	0.00497803	0.00833712	0.0249984
  5080	0.00497264	0.00833354	0.0250002
  5081	0.00497453	0.00833355	0.0249996
  5082	0.00497171	0.00833381	0.0249983
  5083	0.00497454	0.00833528	0.0249981
  5084	0.00497531	0.00833363	0.0249994
  5085	0.00497526	0.00833532	0.0249981
  5086	0.00497039	0.00833381	0.0249984
  5087	0.00497492	0.0083354	0.0249979
  5088	0.00497611	0.00833365	0.0250011
  5089	0.00497664	0.00833539	0.024998
  5090	0.00497461	0.00833366	0.0250025
  5091	0.00497618	0.0083337	0.0249992
  5092	0.00497077	0.00833186	0.0249998
  5093	0.00497512	0.00833369	0.0250006
  5094	0.00497652	0.0083337	0.0250009
  5095	0.0049797	0.00833708	0.0249987
  5096	0.00497457	0.00833371	0.0250009
  5097	0.00497843	0.00833369	0.0250031
  5098	0.00497483	0.00833389	0.0249987
  5099	0.00497418	0.00833405	0.024998
  5100	0.00497583	0.00833229	0.0250026
  5101	0.00497577	0.00833389	0.0249986
  5102	0.004977	0.00833232	0.0250025
  5103	0.00497697	0.00833236	0.0249989
  5104	0.00497543	0.0083339	0.0249986
  5105	0.00497507	0.00833384	0.0249991
  5106	0.00497663	0.00833549	0.0249981
  5107	0.00497526	0.00833229	0.0250026
  5108	0.00497562	0.00833568	0.0249998
  5109	0.00497563	0.00833241	0.0250024
  5110	0.00497779	0.00833232	0.0250025
  5111	0.00497376	0.00833398	0.0249986
  5112	0.00497641	0.00833223	0.0250029
  5113	0.00497525	0.00833406	0.024998
  5114	0.004977	0.00833229	0.0250026
  5115	0.00497694	0.00833422	0.0250009
  5116	0.00497619	0.00833227	0.0250027
  5117	0.00497912	0.00833728	0.0249982
  5118	0.00497503	0.00833408	0.024998
  5119	0.00497606	0.00833391	0.0249988
  5120	0.00497584	0.00833402	0.0249981
  5121	0.0049765	0.00833403	0.0249981
  5122	0.00497472	0.00833394	0.0249986
  5123	0.00497607	0.00833417	0.0249979
  5124	0.00498941	0.00833326	0.025
  5125	0.00499137	0.00833342	0.0250002
  5126	0.00499122	0.00833326	0.0249999
  5127	0.00499517	0.00833335	0.025
  5128	0.00501015	0.00833329	0.025
  5129	0.00498734	0.00833328	0.025
  5130	0.00498945	0.00833327	0.0249999
  5131	0.00499534	0.00833338	0.025
  5132	0.00499747	0.00833326	0.0250001
  5133	0.00498921	0.0083333	0.025
  5134	0.00498973	0.0083331	0.025
  5135	0.00499258	0.00833336	0.0249999
  5136	0.00498782	0.00833335	0.025
  5137	0.00498894	0.00833337	0.025
  5138	0.00498525	0.00833334	0.025
  5139	0.00478073	0.00833341	0.0250003
  5140	0.00495562	0.00833325	0.0250002
  5141	0.00498837	0.00833333	0.025
  5142	0.00499649	0.00833324	0.0250002
  5143	0.00498799	0.00833337	0.0249999
  5144	0.00499112	0.00833368	0.0249997
  5145	0.00500353	0.00833344	0.0249996
  5146	0.00497843	0.00833394	0.025
  5147	0.00483244	0.0083328	0.0249999
  5148	0.00399811	0.00833318	0.0250001
  5149	0.00481087	0.00833194	0.0250012
  5150	0.00491999	0.00833198	0.0249982
  5151	0.00495114	0.00833565	0.0249986
  5152	0.00497135	0.00833484	0.024999
  5153	0.00498648	0.00833309	0.0250017
  5154	0.00497784	0.00833398	0.0249985
  5155	0.00499413	0.00833337	0.0249986
  5156	0.00501715	0.00833197	0.0250017
  5157	0.00500354	0.00833334	0.0250004
  5158	0.00500674	0.00833349	0.0249992
  5159	0.00498805	0.00833196	0.0249988
  5160	0.00498621	0.00833583	0.0250005
  5161	0.00493615	0.00833293	0.0249996
  5162	0.00464919	0.00833401	0.0250003
  5163	0.00212089	0.00833264	0.025003
  5164	0.00433239	0.00833731	0.0250021
  5165	0.00476501	0.00833193	0.0250014
  5166	0.00486264	0.00833437	0.0249985
  5167	0.00491153	0.00833174	0.0249981
  5168	0.00492468	0.00833612	0.0249999
  5169	0.00493299	0.0083312	0.0249976
  5170	0.00494904	0.00833138	0.0250035
  5171	0.00495703	0.00833421	0.0250032
  5172	0.00496181	0.00833396	0.0250033
  5173	0.0049703	0.00833726	0.0249988
  5174	0.00496705	0.008333	0.0250017
  5175	0.00497001	0.00833472	0.0250019
  5176	0.00497245	0.00833347	0.0249983
  5177	0.004974	0.00833183	0.0249986
  5178	0.00497444	0.00833499	0.0250026
  5179	0.0049769	0.00833208	0.0250001
  5180	0.00497713	0.00833179	0.025002
  5181	0.0049795	0.00833199	0.0249991
  5182	0.00497885	0.00833191	0.0249998
  5183	0.00497907	0.00833192	0.0250001
  5184	0.00497939	0.00833192	0.0250003
  5185	0.00498152	0.00833195	0.0250002
  5186	0.00498037	0.00833191	0.0250009
  5187	0.00498119	0.00833188	0.0250016
  5188	0.00498244	0.00833193	0.0250012
  5189	0.00498199	0.00833187	0.0250014
  5190	0.00498319	0.00833189	0.0250027
  5191	0.00498339	0.00833189	0.0250034
  5192	0.00498358	0.00833188	0.0250014
  5193	0.00498264	0.00833188	0.0250016
  5194	0.0049822	0.0083318	0.0250027
  5195	0.00498358	0.00833494	0.0250009
  5196	0.00498004	0.00833178	0.0250012
  5197	0.00498469	0.00833238	0.0250009
  5198	0.0049836	0.00833191	0.0250013
  5199	0.00498259	0.00833364	0.0249999
  5200	0.00498245	0.00833267	0.0249987
  5201	0.00498434	0.00833267	0.0249988
  5202	0.00498229	0.00833179	0.0250037
  5203	0.00498317	0.00833181	0.025002
  5204	0.00498313	0.0083319	0.025002
  5205	0.0049819	0.00833183	0.0249985
  5206	0.00498449	0.00833265	0.024999
  5207	0.00498573	0.00833179	0.0250033
  5208	0.00498366	0.0083318	0.0249988
  5209	0.0049844	0.00833197	0.0250019
  5210	0.00498366	0.00833261	0.0249988
  5211	0.00498393	0.00833237	0.0250005
  5212	0.00498284	0.00833255	0.024999
  5213	0.00498217	0.00833179	0.0250033
  5214	0.00497819	0.00833262	0.0249988
  5215	0.00498378	0.00833181	0.0249989
  5216	0.00498257	0.0083322	0.0250031
  5217	0.00498307	0.00833251	0.0250007
  5218	0.00498459	0.00833237	0.025004
  5219	0.00498351	0.00833644	0.025
  5220	0.00498289	0.00833219	0.0250028
  5221	0.00498315	0.00833265	0.0249988
  5222	0.00497968	0.00833266	0.0249991
  5223	0.00498234	0.00833181	0.0250036
  5224	0.00498426	0.00833224	0.025004
  5225	0.00498313	0.00833262	0.024999
  5226	0.00498292	0.00833236	0.025004
  5227	0.00498357	0.00833238	0.025002
  5228	0.0049823	0.00833484	0.0250005
  5229	0.00498294	0.00833183	0.0250033
  5230	0.00498306	0.00833166	0.024999
  5231	0.00498285	0.0083323	0.025004
  5232	0.0049821	0.00833379	0.0249995
  5233	0.00499273	0.00833331	0.025
  5234	0.00499261	0.00833318	0.025
  5235	0.00499568	0.00833334	0.025
  5236	0.00501123	0.00833329	0.025
  5237	0.0049883	0.00833339	0.025
  5238	0.00498993	0.00833335	0.0249999
  5239	0.00499753	0.00833325	0.025
  5240	0.0049974	0.00833343	0.0250001
  5241	0.0049928	0.00833319	0.025
  5242	0.00499446	0.0083334	0.025
  5243	0.00499672	0.00833323	0.0249998
  5244	0.00499138	0.00833334	0.025
  5245	0.00499079	0.00833339	0.0249998
  5246	0.00498998	0.00833335	0.0249999
  5247	0.00478157	0.0083331	0.025
  5248	0.00495623	0.00833331	0.025
  5249	0.0049934	0.0083333	0.0250001
  5250	0.00499867	0.00833335	0.0249999
  5251	0.00499005	0.00833343	0.0250002
  5252	0.00499755	0.00833301	0.0249999
  5253	0.00499861	0.00833361	0.0250004
  5254	0.00498369	0.00833342	0.0250002
  5255	0.00486147	0.00833301	0.0249995
  5256	0.00400646	0.00833321	0.0250002
  5257	0.00483901	0.00833165	0.0250013
  5258	0.0049369	0.00833516	0.0249985
  5259	0.00496094	0.008334	0.0249985
  5260	0.00498783	0.00833187	0.0250013
  5261	0.00498891	0.00833195	0.0249985
  5262	0.0049899	0.00833209	0.0250026
  5263	0.0050019	0.00833515	0.0250018
  5264	0.00502273	0.0083344	0.0250017
  5265	0.00501602	0.00833213	0.0250022
  5266	0.00501372	0.00833397	0.0250015
  5267	0.00500974	0.00833206	0.0250004
  5268	0.00499498	0.00833561	0.0250009
  5269	0.00494894	0.00833364	0.0250001
  5270	0.00466862	0.00833411	0.0250005
  5271	0.00212253	0.00833261	0.0250029
  5272	0.0044146	0.00832966	0.0250029
  5273	0.00480409	0.00833104	0.025002
  5274	0.00489221	0.00833224	0.025003
  5275	0.00493258	0.00833502	0.0249981
  5276	0.00493768	0.00833377	0.0249984
  5277	0.00495303	0.00833699	0.0249989
  5278	0.00496409	0.0083369	0.0250032
  5279	0.0049691	0.00833651	0.0250028
  5280	0.00497294	0.00833159	0.0250039
  5281	0.00497539	0.00833321	0.0249992
  5282	0.00497814	0.00833305	0.0250007
  5283	0.00498036	0.00833214	0.0249999
  5284	0.00498218	0.00833205	0.0250008
  5285	0.00498365	0.00833197	0.0250006
  5286	0.00498456	0.0083316	0.0250012
  5287	0.00498473	0.00833161	0.025004
  5288	0.00498645	0.00833161	0.0250037
  5289	0.00498669	0.00833162	0.0250039
  5290	0.00498771	0.00833163	0.025004
  5291	0.0049884	0.00833164	0.0250004
  5292	0.00498854	0.0083329	0.0249996
  5293	0.00499228	0.00833652	0.0250013
  5294	0.00498992	0.00833283	0.0249997
  5295	0.00499083	0.00833291	0.0249995
  5296	0.00499041	0.00833326	0.0249992
  5297	0.0049903	0.0083346	0.0250011
  5298	0.0049906	0.00833402	0.0249989
  5299	0.00499033	0.00833505	0.0250027
  5300	0.00499065	0.00833457	0.0249988
  5301	0.0049903	0.00833538	0.0250035
  5302	0.00499098	0.00833496	0.0250004
  5303	0.0049909	0.00833511	0.0250035
  5304	0.00499081	0.00833524	0.0250037
  5305	0.00499072	0.00833535	0.0250035
  5306	0.00499063	0.00833545	0.025003
  5307	0.00499054	0.00833553	0.0249988
  5308	0.00498997	0.00833599	0.0249988
  5309	0.00498992	0.00833604	0.0250006
  5310	0.00498986	0.00833608	0.0250001
  5311	0.00499019	0.00833578	0.025004
  5312	0.00498976	0.00833615	0.0249985
  5313	0.00499004	0.00833586	0.0249985
  5314	0.00498967	0.00833621	0.0249984
  5315	0.00498963	0.00833623	0.0250002
  5316	0.00498956	0.00833625	0.0250039
  5317	0.00498979	0.00833598	0.0249988
  5318	0.00498949	0.00833629	0.0250033
  5319	0.00498946	0.0083363	0.0250034
  5320	0.00498963	0.00833604	0.0250004
  5321	0.00498959	0.00833605	0.0250003
  5322	0.00498955	0.00833607	0.0250001
  5323	0.00498951	0.00833608	0.025
  5324	0.00498948	0.00833609	0.0249999
  5325	0.00498945	0.0083361	0.0249999
  5326	0.00498942	0.00833611	0.0249993
  5327	0.00498939	0.00833612	0.0249989
  5328	0.00498927	0.00833639	0.0250009
  5329	0.00498934	0.00833614	0.0249985
  5330	0.00498932	0.00833614	0.0249984
  5331	0.0049893	0.00833615	0.0249984
  5332	0.00498929	0.00833616	0.0249984
  5333	0.00498921	0.00833641	0.0250022
  5334	0.00498926	0.00833617	0.0249984
  5335	0.00498919	0.00833642	0.0250025
  5336	0.00498923	0.00833617	0.0249984
  5337	0.00498922	0.00833618	0.0249984
  5338	0.00498921	0.00833618	0.0249984
  5339	0.00498916	0.00833643	0.0250029
  5340	0.00498919	0.00833618	0.0249984
  5341	0.00498915	0.00833643	0.025003
  5342	0.00499468	0.00833319	0.025
  5343	0.004998	0.00833335	0.025
  5344	0.00500851	0.00833329	0.025
  5345	0.00499091	0.00833336	0.025
  5346	0.00499038	0.00833334	0.025
  5347	0.00499793	0.00833338	0.025
  5348	0.00499766	0.0083334	0.0250001
  5349	0.00499391	0.00833313	0.025
  5350	0.00499501	0.00833306	0.0250001
  5351	0.00499743	0.00833305	0.025
  5352	0.00499011	0.00833334	0.025
  5353	0.00499138	0.00833338	0.025
  5354	0.0049899	0.00833334	0.025
  5355	0.00478493	0.00833365	0.0250003
  5356	0.00496395	0.00833327	0.0249999
  5357	0.00498847	0.00833342	0.025
  5358	0.00500226	0.00833328	0.0250002
  5359	0.00499277	0.00833364	0.0250003
  5360	0.00500116	0.00833316	0.0250003
  5361	0.00500599	0.00833305	0.0250004
  5362	0.00498622	0.00833387	0.0249996
  5363	0.00488844	0.00833395	0.0250001
  5364	0.00406481	0.00833309	0.0249998
  5365	0.00485976	0.00833135	0.0250017
  5366	0.00493579	0.00833508	0.0250016
  5367	0.00497154	0.00833617	0.0250033
  5368	0.00499383	0.00833416	0.0250022
  5369	0.00499753	0.00833494	0.0249987
  5370	0.00498838	0.00833443	0.0249993
  5371	0.00500233	0.00833481	0.0249986
  5372	0.00502807	0.0083342	0.0250012
  5373	0.00502182	0.00833237	0.0249998
  5374	0.00501374	0.00833497	0.0249995
  5375	0.00500834	0.00833424	0.0250006
  5376	0.00500182	0.00833539	0.0249989
  5377	0.00495765	0.0083345	0.0250007
  5378	0.00472111	0.00833394	0.0250006
  5379	0.00212396	0.00833273	0.0250028
  5380	0.00448865	0.0083365	0.024999
  5381	0.0048396	0.00833072	0.0250039
  5382	0.00493984	0.00833173	0.0250039
  5383	0.00495037	0.00833402	0.0250038
  5384	0.00494993	0.00833236	0.024999
  5385	0.0049553	0.00833667	0.0249996
  5386	0.00497911	0.00833193	0.0250015
  5387	0.00497915	0.00833565	0.025004
  5388	0.00498209	0.00833166	0.0250035
  5389	0.0049845	0.00833166	0.0250018
  5390	0.0049876	0.00833401	0.0249987
  5391	0.00499069	0.00833533	0.0250039
  5392	0.00499069	0.00833681	0.0250016
  5393	0.00499013	0.00833699	0.0250029
  5394	0.00499601	0.00833725	0.0249987
  5395	0.00499638	0.00833715	0.0250031
  5396	0.00499476	0.00833692	0.0250035
  5397	0.00499519	0.00833704	0.0250009
  5398	0.00499463	0.00833712	0.0250038
  5399	0.00499631	0.00833693	0.0250036
  5400	0.00499681	0.00833689	0.025004
  5401	0.00499724	0.00833686	0.0250037
  5402	0.0049962	0.00833692	0.0250038
  5403	0.00499634	0.0083369	0.0250039
  5404	0.00499644	0.00833688	0.0250038
  5405	0.0049965	0.00833687	0.0250036
  5406	0.00499653	0.00833686	0.0250033
  5407	0.00499663	0.00833709	0.0250023
  5408	0.00499658	0.00833713	0.0250005
  5409	0.00499652	0.00833715	0.0250006
  5410	0.00499646	0.00833716	0.0249986
  5411	0.0049964	0.00833718	0.0249986
  5412	0.00499631	0.00833719	0.0250035
  5413	0.00499625	0.00833719	0.0250037
  5414	0.00499619	0.00833718	0.0250038
  5415	0.00499613	0.00833718	0.0250039
  5416	0.00499606	0.00833718	0.0250039
  5417	0.00499599	0.00833718	0.0250038
  5418	0.00499593	0.00833717	0.0250037
  5419	0.00499587	0.00833717	0.0250036
  5420	0.00499581	0.00833717	0.0250035
  5421	0.00499575	0.00833717	0.0250034
  5422	0.0049957	0.00833717	0.0250032
  5423	0.00499565	0.00833716	0.0250031
  5424	0.0049956	0.00833716	0.025003
  5425	0.00499555	0.00833716	0.0250028
  5426	0.00499551	0.00833716	0.0250027
  5427	0.00499547	0.00833716	0.0250026
  5428	0.00499543	0.00833716	0.0250024
  5429	0.0049954	0.00833716	0.0250023
  5430	0.00499537	0.00833716	0.0250039
  5431	0.00499534	0.00833715	0.0250039
  5432	0.00499531	0.00833715	0.0250039
  5433	0.00499528	0.00833715	0.0250039
  5434	0.00499526	0.00833715	0.0250039
  5435	0.00499524	0.00833715	0.0250039
  5436	0.00499522	0.00833715	0.0250039
  5437	0.0049952	0.00833715	0.0250039
  5438	0.00499518	0.00833715	0.0250039
  5439	0.00499517	0.00833715	0.0250039
  5440	0.00499516	0.00833715	0.0250039
  5441	0.00499514	0.00833715	0.0250039
  5442	0.00499513	0.00833715	0.0250039
  5443	0.00499512	0.00833715	0.0250039
  5444	0.00499511	0.00833715	0.0250039
  5445	0.0049951	0.00833715	0.0250039
  5446	0.00499509	0.00833715	0.0250039
  5447	0.00499508	0.00833715	0.0250039
  5448	0.00499508	0.00833715	0.0250039
  5449	0.00499507	0.00833715	0.0250039
  5450	0.00499507	0.00833715	0.0250039
  5451	0.00499828	0.00833335	0.025
  5452	0.00500875	0.00833338	0.025
  5453	0.00498984	0.00833339	0.025
  5454	0.00499211	0.00833332	0.0250001
  5455	0.00499957	0.00833335	0.025
  5456	0.00499875	0.00833341	0.0250001
  5457	0.00499601	0.00833317	0.0249998
  5458	0.00499695	0.00833305	0.0250001
  5459	0.00499803	0.00833328	0.025
  5460	0.00499288	0.00833335	0.0249996
  5461	0.00499225	0.00833337	0.025
  5462	0.00499339	0.00833333	0.025
  5463	0.0047911	0.00833336	0.0249998
  5464	0.00497387	0.00833328	0.0249999
  5465	0.00498679	0.00833344	0.025
  5466	0.00499609	0.00833355	0.0249999
  5467	0.00499628	0.00833317	0.0249999
  5468	0.00499805	0.00833373	0.0249998
  5469	0.00500207	0.0083328	0.0249995
  5470	0.00498914	0.00833361	0.0249995
  5471	0.0049029	0.00833394	0.0250002
  5472	0.00408885	0.00833324	0.0249997
  5473	0.00488571	0.00833161	0.0250018
  5474	0.00495263	0.00833616	0.0250024
  5475	0.00497954	0.00833178	0.0250023
  5476	0.0049868	0.00833667	0.0250019
  5477	0.00500446	0.00833495	0.0249982
  5478	0.00499899	0.00833379	0.0250021
  5479	0.00500851	0.00833241	0.0249993
  5480	0.0050291	0.0083327	0.0250015
  5481	0.00502244	0.00833309	0.0250003
  5482	0.00501408	0.00833504	0.0250015
  5483	0.00501385	0.00833401	0.0249998
  5484	0.00500812	0.00833511	0.024999
  5485	0.00497709	0.00833476	0.025001
  5486	0.00477769	0.00833446	0.0250001
  5487	0.002127	0.00833402	0.0250023
  5488	0.00457207	0.00833663	0.0250013
  5489	0.00486419	0.00833411	0.0250037
  5490	0.0049591	0.0083316	0.0250035
  5491	0.00496403	0.00833293	0.0249998
  5492	0.00496442	0.00833163	0.0249989
  5493	0.0049665	0.00833684	0.0249998
  5494	0.0049846	0.00833726	0.0250039
  5495	0.00498683	0.00833704	0.0250006
  5496	0.00498919	0.00833723	0.0250015
  5497	0.00499094	0.00833683	0.0250026
  5498	0.00499405	0.00833644	0.0250029
  5499	0.0049954	0.00833639	0.0249992
  5500	0.00499706	0.00833702	0.0250038
  5501	0.00499785	0.00833708	0.0250036
  5502	0.00499918	0.00833688	0.025002
  5503	0.00500128	0.00833711	0.0250033
  5504	0.00499894	0.00833704	0.0250018
  5505	0.00501647	0.00833207	0.0250031
  5506	0.00501703	0.00833661	0.0250037
  5507	0.0050013	0.00833701	0.0249994
  5508	0.00502563	0.00833534	0.0249984
  5509	0.00502078	0.00833173	0.0250038
  5510	0.00499647	0.00833364	0.0249985
  5511	0.00502261	0.00833253	0.0250033
  5512	0.00500132	0.00833703	0.0250027
  5513	0.00502371	0.00833632	0.025004
  5514	0.00500187	0.00833697	0.024999
  5515	0.00502848	0.00833731	0.025004
  5516	0.00503027	0.00833159	0.0250015
  5517	0.00502741	0.0083342	0.0249985
  5518	0.00502987	0.00833568	0.0250039
  5519	0.00502919	0.00833727	0.0249984
  5520	0.00503072	0.00833215	0.0249997
  5521	0.00503119	0.00833284	0.0250015
  5522	0.00503178	0.00833313	0.0250001
  5523	0.00503231	0.0083323	0.0249998
  5524	0.00503231	0.00833688	0.0249985
  5525	0.00503286	0.00833707	0.0249991
  5526	0.00503592	0.00833211	0.0250039
  5527	0.00503425	0.0083326	0.0250034
  5528	0.00503401	0.00833431	0.0249986
  5529	0.00503441	0.00833455	0.0249985
  5530	0.00503508	0.00833187	0.0250013
  5531	0.0050351	0.00833532	0.0250031
  5532	0.00503559	0.00833155	0.0250024
  5533	0.00503564	0.00833495	0.0250021
  5534	0.00503591	0.00833709	0.0249988
  5535	0.00503615	0.00833728	0.0250012
  5536	0.00503687	0.00833438	0.0249985
  5537	0.00503653	0.00833703	0.0249991
  5538	0.00503684	0.00833154	0.0250022
  5539	0.00503709	0.00833154	0.0250022
  5540	0.005037	0.00833543	0.025003
  5541	0.00503729	0.00833229	0.0249993
  5542	0.00503727	0.00833573	0.0250036
  5543	0.00503738	0.0083358	0.0250037
  5544	0.00503762	0.00833182	0.0250016
  5545	0.00503753	0.00833393	0.0249986
  5546	0.00503762	0.00833414	0.0249985
  5547	0.0050377	0.00833398	0.0249986
  5548	0.00503779	0.00833449	0.0249985
  5549	0.0050379	0.0083371	0.0249987
  5550	0.00500767	0.00833715	0.0250027
  5551	0.0050381	0.00833179	0.0250017
  5552	0.00503817	0.00833168	0.0250029
  5553	0.0050382	0.00833174	0.025003
  5554	0.00503819	0.00833497	0.0250028
  5555	0.00503813	0.00833381	0.0249986
  5556	0.00503824	0.00833669	0.0250038
  5557	0.0050382	0.00833402	0.0249986
  5558	0.00503825	0.00833533	0.0250032
  5559	0.00503825	0.00833408	0.0249986

Total elapsed time: 1666.033 seconds.

